CB Clip guest7
  DSViewer          3D                             0

 42 45  0  0  0  0  0  0  0  0999 V2000
   -0.7190    2.4600    0.0110 C   0  0  0  0  0  0  0  0  0  1
   -1.3990    1.2780    0.0620 C   0  0  0  0  0  0  0  0  0  2
   -0.6940    0.0600    0.0180 C   0  0  0  0  0  0  0  0  0  3
    0.6990    0.0710   -0.1100 C   0  0  0  0  0  0  0  0  0  4
    1.3890    1.2980   -0.1360 C   0  0  0  0  0  0  0  0  0  5
    0.6910    2.4700   -0.0700 C   0  0  0  0  0  0  0  0  0  6
   -1.3800   -1.1670    0.1020 C   0  0  0  0  0  0  0  0  0  7
    1.4000   -1.1460   -0.2130 C   0  0  0  0  0  0  0  0  0  8
    0.7160   -2.3280   -0.1670 C   0  0  0  0  0  0  0  0  0  9
   -0.6860   -2.3380    0.0100 C   0  0  0  0  0  0  0  0  0 10
    2.8820    1.3090   -0.2380 C   0  0  0  0  0  0  0  0  0 11
    2.8850   -1.1300   -0.4050 C   0  0  0  0  0  0  0  0  0 12
    3.4770    2.3470   -0.1970 O   0  0  0  0  0  0  0  0  0 13
    3.4840   -2.1550   -0.5700 O   0  0  0  0  0  0  0  0  0 14
    3.5240    0.0950   -0.3970 N   0  0  0  0  0  0  0  0  0 15
    5.0050    0.1030   -0.6120 C   0  0  0  0  0  0  0  0  0 16
    5.8180   -0.2140    0.6420 C   0  0  0  0  0  0  0  0  0 17
   -2.8910    1.2650    0.1670 C   0  0  0  0  0  0  0  0  0 18
   -2.8570   -1.1710    0.3420 C   0  0  0  0  0  0  0  0  0 19
   -3.5060    2.2900    0.1060 O   0  0  0  0  0  0  0  0  0 20
   -3.4370   -2.2010    0.5180 O   0  0  0  0  0  0  0  0  0 21
   -3.5090    0.0470    0.3650 N   0  0  0  0  0  0  0  0  0 22
   -4.9770    0.0490    0.6560 C   0  0  0  0  0  0  0  0  0 23
   -5.8580   -0.3040   -0.5350 C   0  0  0  0  0  0  0  0  0 24
    7.3530   -0.1840    0.3690 C   0  0  0  0  0  0  0  0  0 25
   -7.3750   -0.1460   -0.2000 C   0  0  0  0  0  0  0  0  0 26
    7.6960    0.2640   -0.7290 O   0  5  0  0  0  0  0  0  0 27
    8.0450   -0.5930    1.2990 O   0  5  0  0  0  0  0  0  0 28
   -7.6300    0.3800    0.8930 O   0  5  0  0  0  0  0  0  0 29
   -8.1390   -0.5620   -1.0740 O   0  0  0  0  0  0  0  0  0 30
   -1.2380    3.3520    0.0320 H   0  0  0  0  0  0  0  0  0 31
    1.1970    3.3690   -0.0790 H   0  0  0  0  0  0  0  0  0 32
    1.2270   -3.2200   -0.2620 H   0  0  0  0  0  0  0  0  0 33
   -1.1880   -3.2370    0.0700 H   0  0  0  0  0  0  0  0  0 34
    5.3040    1.0550   -0.9990 H   0  0  0  0  0  0  0  0  0 35
    5.2120   -0.6810   -1.3100 H   0  0  0  0  0  0  0  0  0 36
    5.5360   -1.1730    1.0240 H   0  0  0  0  0  0  0  0  0 37
    5.6040    0.5440    1.3660 H   0  0  0  0  0  0  0  0  0 38
   -5.1800   -0.6260    1.4610 H   0  0  0  0  0  0  0  0  0 39
   -5.2250    1.0570    0.9180 H   0  0  0  0  0  0  0  0  0 40
   -5.6040    0.3140   -1.3710 H   0  0  0  0  0  0  0  0  0 41
   -5.6820   -1.3310   -0.7780 H   0  0  0  0  0  0  0  0  0 42
  1  6  2  0  0  0
  1  2  1  0  0  0
  1 31  1  0  0  0
  2  3  2  0  0  0
  2 18  1  0  0  0
  3  4  1  0  0  0
  3  7  1  0  0  0
  4  8  1  0  0  0
  4  5  2  0  0  0
  5 11  1  0  0  0
  5  6  1  0  0  0
  6 32  1  0  0  0
  7 10  2  0  0  0
  7 19  1  0  0  0
  8 12  1  0  0  0
  8  9  2  0  0  0
  9 10  1  0  0  0
  9 33  1  0  0  0
 10 34  1  0  0  0
 11 15  1  0  0  0
 11 13  2  0  0  0
 12 14  2  0  0  0
 12 15  1  0  0  0
 15 16  1  0  0  0
 16 17  1  0  0  0
 16 35  1  0  0  0
 16 36  1  0  0  0
 17 25  1  0  0  0
 17 37  1  0  0  0
 17 38  1  0  0  0
 18 20  2  0  0  0
 18 22  1  0  0  0
 19 22  1  0  0  0
 19 21  2  0  0  0
 22 23  1  0  0  0
 23 24  1  0  0  0
 23 39  1  0  0  0
 23 40  1  0  0  0
 24 26  1  0  0  0
 24 41  1  0  0  0
 24 42  1  0  0  0
 25 27  1  0  0  0
 25 28  2  0  0  0
 26 30  2  0  0  0
 26 29  1  0  0  0
M  CHG  2  27  -1  29  -1
M  END
