@<TRIPOS>MOLECULE
MOL
   44    43     1     0     0
SMALL
resp


@<TRIPOS>ATOM
      1 C1          6.9050    0.5130   -0.0020 c3        1 MOL      0.075593
      2 C2          5.6320   -0.3510   -0.0010 c3        1 MOL     -0.038631
      3 C3          4.3560    0.5090    0.0010 c3        1 MOL     -0.026895
      4 N1          8.1290   -0.3230   -0.0040 n4        1 MOL     -0.423768
      5 C4          1.9020    0.4820    0.0030 c3        1 MOL     -0.026436
      6 C5          0.6530   -0.4130    0.0030 c3        1 MOL     -0.013882
      7 C6         -0.6530    0.4140    0.0020 c3        1 MOL     -0.013882
      8 C7         -1.9020   -0.4810    0.0010 c3        1 MOL     -0.026436
      9 C8         -4.3570   -0.5080    0.0000 c3        1 MOL     -0.026895
     10 C9         -5.6320    0.3500   -0.0010 c3        1 MOL     -0.038631
     11 C10        -6.9050   -0.5140   -0.0010 c3        1 MOL      0.075593
     12 N2          3.1370   -0.3420    0.0020 n4        1 MOL     -0.097993
     13 N3         -3.1380    0.3410    0.0010 n4        1 MOL     -0.097993
     14 N4         -8.1290    0.3220   -0.0030 n4        1 MOL     -0.423768
     15 H1          8.9580    0.2630   -0.0040 hn        1 MOL      0.370598
     16 H2          8.1800   -0.9130   -0.8260 hn        1 MOL      0.370598
     17 H3          8.1820   -0.9130    0.8180 hn        1 MOL      0.370598
     18 H4          3.1290   -0.9410   -0.8170 hn        1 MOL      0.291678
     19 H5          3.1300   -0.9410    0.8210 hn        1 MOL      0.291678
     20 H6         -3.1300    0.9410    0.8190 hn        1 MOL      0.291678
     21 H7         -3.1290    0.9410   -0.8190 hn        1 MOL      0.291678
     22 H8         -8.1800    0.9120   -0.8260 hn        1 MOL      0.370598
     23 H9         -8.1810    0.9130    0.8190 hn        1 MOL      0.370598
     24 H10        -8.9580   -0.2630   -0.0040 hn        1 MOL      0.370598
     25 H11         6.8970    1.1590   -0.8870 hx        1 MOL      0.113995
     26 H12         6.8990    1.1580    0.8840 hx        1 MOL      0.113995
     27 H13         5.6330   -0.9850    0.8870 hc        1 MOL      0.054450
     28 H14         5.6310   -0.9850   -0.8890 hc        1 MOL      0.054450
     29 H15         4.3600    1.1520   -0.8850 hx        1 MOL      0.106375
     30 H16         4.3610    1.1520    0.8880 hx        1 MOL      0.106375
     31 H17         1.8750    1.1240   -0.8830 hx        1 MOL      0.108810
     32 H18         1.8750    1.1230    0.8900 hx        1 MOL      0.108810
     33 H19         0.6710   -1.0500    0.8900 hc        1 MOL      0.044801
     34 H20         0.6720   -1.0500   -0.8840 hc        1 MOL      0.044801
     35 H21        -0.6710    1.0500   -0.8850 hc        1 MOL      0.044801
     36 H22        -0.6720    1.0500    0.8900 hc        1 MOL      0.044801
     37 H23        -1.8750   -1.1230    0.8880 hx        1 MOL      0.108810
     38 H24        -1.8750   -1.1240   -0.8840 hx        1 MOL      0.108810
     39 H25        -4.3610   -1.1520    0.8870 hx        1 MOL      0.106375
     40 H26        -4.3600   -1.1520   -0.8860 hx        1 MOL      0.106375
     41 H27        -5.6320    0.9850   -0.8900 hc        1 MOL      0.054450
     42 H28        -5.6330    0.9850    0.8870 hc        1 MOL      0.054450
     43 H29        -6.8990   -1.1570    0.8850 hx        1 MOL      0.113995
     44 H30        -6.8980   -1.1590   -0.8870 hx        1 MOL      0.113995
@<TRIPOS>BOND
     1    1    2 1   
     2    1    4 1   
     3    1   25 1   
     4    1   26 1   
     5    2    3 1   
     6    2   27 1   
     7    2   28 1   
     8    3   12 1   
     9    3   29 1   
    10    3   30 1   
    11    4   15 1   
    12    4   16 1   
    13    4   17 1   
    14    5    6 1   
    15    5   12 1   
    16    5   31 1   
    17    5   32 1   
    18    6    7 1   
    19    6   33 1   
    20    6   34 1   
    21    7    8 1   
    22    7   35 1   
    23    7   36 1   
    24    8   13 1   
    25    8   37 1   
    26    8   38 1   
    27    9   10 1   
    28    9   13 1   
    29    9   39 1   
    30    9   40 1   
    31   10   11 1   
    32   10   41 1   
    33   10   42 1   
    34   11   14 1   
    35   11   43 1   
    36   11   44 1   
    37   12   18 1   
    38   12   19 1   
    39   13   20 1   
    40   13   21 1   
    41   14   22 1   
    42   14   23 1   
    43   14   24 1   
@<TRIPOS>SUBSTRUCTURE
     1 MOL         1 TEMP              0 ****  ****    0 ROOT
