@<TRIPOS>MOLECULE
MOL
   20    19     1     0     0
SMALL
resp


@<TRIPOS>ATOM
      1 C1          1.8820   -0.5610   -0.0040 c3        1 MOL      0.120827
      2 C2          0.6700    0.3850   -0.0010 c3        1 MOL     -0.042939
      3 C3         -0.6700   -0.3850   -0.0030 c3        1 MOL     -0.042939
      4 C4         -1.8820    0.5610   -0.0010 c3        1 MOL      0.120827
      5 N1         -3.1510   -0.2000   -0.0020 n4        1 MOL     -0.425844
      6 N2          3.1510    0.2000   -0.0030 n4        1 MOL     -0.425844
      7 H1          1.8420   -1.2040   -0.8590 hx        1 MOL      0.087010
      8 H2          1.8460   -1.1520    0.8870 hx        1 MOL      0.087010
      9 H3          0.7150    1.0350   -0.8510 hc        1 MOL      0.046179
     10 H4          0.7100    0.9590    0.9010 hc        1 MOL      0.046179
     11 H5         -0.7150   -1.0350    0.8460 hc        1 MOL      0.046179
     12 H6         -0.7100   -0.9590   -0.9060 hc        1 MOL      0.046179
     13 H7         -1.8430    1.2080   -0.8520 hx        1 MOL      0.087010
     14 H8         -1.8460    1.1480    0.8930 hx        1 MOL      0.087010
     15 H9         -3.2070   -0.7680   -0.8470 hn        1 MOL      0.360526
     16 H10        -3.9460    0.4380    0.0480 hn        1 MOL      0.360526
     17 H11        -3.1770   -0.8110    0.8150 hn        1 MOL      0.360526
     18 H12         3.2060    0.7720   -0.8450 hn        1 MOL      0.360526
     19 H13         3.9460   -0.4380    0.0430 hn        1 MOL      0.360526
     20 H14         3.1780    0.8070    0.8170 hn        1 MOL      0.360526
@<TRIPOS>BOND
     1    1    2 1   
     2    1    6 1   
     3    1    7 1   
     4    1    8 1   
     5    2    3 1   
     6    2    9 1   
     7    2   10 1   
     8    3    4 1   
     9    3   11 1   
    10    3   12 1   
    11    4    5 1   
    12    4   13 1   
    13    4   14 1   
    14    5   15 1   
    15    5   16 1   
    16    5   17 1   
    17    6   18 1   
    18    6   19 1   
    19    6   20 1   
@<TRIPOS>SUBSTRUCTURE
     1 MOL         1 TEMP              0 ****  ****    0 ROOT
