CB Clip Guest5
  DSViewer          3D                             0

 40 42  0  0  0  0  0  0  0  0999 V2000
    3.3490    0.2080   -1.3360 C   0  0  0  0  0  0  0  0  0  1
    2.2150   -0.5580   -1.0660 C   0  0  0  0  0  0  0  0  0  2
    1.1170    0.0510   -0.4560 C   0  0  0  0  0  0  0  0  0  3
    1.1170    1.4290   -0.0980 C   0  0  0  0  0  0  0  0  0  4
    2.2880    2.1850   -0.3860 C   0  0  0  0  0  0  0  0  0  5
    3.3730    1.5980   -0.9880 C   0  0  0  0  0  0  0  0  0  6
   -0.0070    1.9890    0.5120 C   0  0  0  0  0  0  0  0  0  7
   -1.1290    1.1990    0.7700 C   0  0  0  0  0  0  0  0  0  8
   -1.1190   -0.1780    0.4110 C   0  0  0  0  0  0  0  0  0  9
   -2.2150   -1.0130    0.6450 C   0  0  0  0  0  0  0  0  0 10
   -3.3510   -0.4830    1.2490 C   0  0  0  0  0  0  0  0  0 11
   -3.3860    0.8950    1.6230 C   0  0  0  0  0  0  0  0  0 12
   -2.3060    1.7100    1.3880 C   0  0  0  0  0  0  0  0  0 13
    0.0010   -0.7000   -0.1880 N   0  3  0  0  0  0  0  0  0 14
    4.4730   -0.3690   -1.9480 N   0  0  0  0  0  0  0  0  0 15
   -4.4620   -1.2860    1.4950 N   0  0  0  0  0  0  0  0  0 16
    5.8140    0.2450   -1.8590 C   0  0  0  0  0  0  0  0  0 17
    4.3830   -1.6390   -2.6980 C   0  0  0  0  0  0  0  0  0 18
   -5.8170   -0.7170    1.6130 C   0  0  0  0  0  0  0  0  0 19
   -4.3430   -2.7490    1.6270 C   0  0  0  0  0  0  0  0  0 20
    2.1670   -1.5880   -1.2970 H   0  0  0  0  0  0  0  0  0 21
    2.3040    3.2150   -0.1300 H   0  0  0  0  0  0  0  0  0 22
    4.2250    2.1880   -1.2040 H   0  0  0  0  0  0  0  0  0 23
   -0.0130    3.0140    0.7800 H   0  0  0  0  0  0  0  0  0 24
   -2.1810   -2.0260    0.3500 H   0  0  0  0  0  0  0  0  0 25
   -4.2470    1.2820    2.0970 H   0  0  0  0  0  0  0  0  0 26
   -2.3501    2.7599    1.6777 H   0  0  0  0  0  0  0  0  0 27
    5.9270    0.6740   -0.8720 H   0  0  0  0  0  0  0  0  0 28
    5.8830    0.9990   -2.6320 H   0  0  0  0  0  0  0  0  0 29
    6.5570   -0.5280   -2.0070 H   0  0  0  0  0  0  0  0  0 30
    3.4360   -1.6600   -3.2220 H   0  0  0  0  0  0  0  0  0 31
    4.4620   -2.4490   -1.9840 H   0  0  0  0  0  0  0  0  0 32
    5.1950   -1.6740   -3.4130 H   0  0  0  0  0  0  0  0  0 33
   -5.9560   -0.4160    2.6430 H   0  0  0  0  0  0  0  0  0 34
   -6.5320   -1.4770    1.3280 H   0  0  0  0  0  0  0  0  0 35
   -5.8870    0.1260    0.9390 H   0  0  0  0  0  0  0  0  0 36
   -5.1530   -3.1010    2.2510 H   0  0  0  0  0  0  0  0  0 37
   -3.3940   -2.9680    2.0970 H   0  0  0  0  0  0  0  0  0 38
   -4.4030   -3.1720    0.6330 H   0  0  0  0  0  0  0  0  0 39
   -0.0210   -1.7010   -0.4390 H   0  0  0  0  0  0  0  0  0 40
  1  2  2  0  0  0
  1  6  1  0  0  0
  1 15  1  0  0  0
  2  3  1  0  0  0
  2 21  1  0  0  0
  3  4  1  0  0  0
  3 14  2  0  0  0
  4  5  1  0  0  0
  4  7  2  0  0  0
  5  6  2  0  0  0
  5 22  1  0  0  0
  6 23  1  0  0  0
  7  8  1  0  0  0
  7 24  1  0  0  0
  8  9  1  0  0  0
  8 13  2  0  0  0
  9 10  2  0  0  0
  9 14  1  0  0  0
 10 11  1  0  0  0
 10 25  1  0  0  0
 11 12  2  0  0  0
 11 16  1  0  0  0
 12 13  1  0  0  0
 12 26  1  0  0  0
 13 27  1  0  0  0
 14 40  1  0  0  0
 15 17  1  0  0  0
 15 18  1  0  0  0
 16 19  1  0  0  0
 16 20  1  0  0  0
 17 28  1  0  0  0
 17 29  1  0  0  0
 17 30  1  0  0  0
 18 31  1  0  0  0
 18 32  1  0  0  0
 18 33  1  0  0  0
 19 34  1  0  0  0
 19 35  1  0  0  0
 19 36  1  0  0  0
 20 37  1  0  0  0
 20 38  1  0  0  0
 20 39  1  0  0  0
M  CHG  1  14   1
M  END
