CBC-G8
  DSViewer          3D                             0

 62 64  0  0  0  0  0  0  0  0999 V2000
    4.5970   -1.8060   -0.0880 N   0  3  0  0  0  0  0  0  0  1
   -4.9280   -1.3900    0.0800 N   0  0  0  0  0  0  0  0  0  2
    0.0760    1.2440    0.0060 C   0  0  0  0  0  0  0  0  0  3
    1.1890    0.4930   -0.0170 C   0  0  0  0  0  0  0  0  0  4
   -1.2390    0.5510    0.0250 C   0  0  0  0  0  0  0  0  0  5
    3.5330   -1.0880   -0.0670 C   0  0  0  0  0  0  0  0  0  6
   -3.6800   -0.7330    0.0620 C   0  0  0  0  0  0  0  0  0  7
    4.5330   -3.2910   -0.0920 C   0  0  0  0  0  0  0  0  0  8
    5.9500   -1.1910   -0.1110 C   0  0  0  0  0  0  0  0  0  9
   -5.5500   -1.7480    1.3390 C   0  0  0  0  0  0  0  0  0 10
   -5.5990   -1.7260   -1.1600 C   0  0  0  0  0  0  0  0  0 11
    0.2230    2.7230    0.0090 C   0  0  0  0  0  0  0  0  0 12
    1.0920   -0.9590   -0.0210 C   0  0  0  0  0  0  0  0  0 13
    2.4990    1.1260   -0.0370 C   0  0  0  0  0  0  0  0  0 14
   -1.8480    0.2470   -1.1740 C   0  0  0  0  0  0  0  0  0 15
   -1.8080    0.2370    1.2420 C   0  0  0  0  0  0  0  0  0 16
    2.1900   -1.7260   -0.0440 C   0  0  0  0  0  0  0  0  0 17
    3.6220    0.3960   -0.0620 C   0  0  0  0  0  0  0  0  0 18
   -3.0840   -0.4020   -1.1550 C   0  0  0  0  0  0  0  0  0 19
   -3.0420   -0.4120    1.2600 C   0  0  0  0  0  0  0  0  0 20
    4.4610   -3.7840   -1.5210 C   0  0  0  0  0  0  0  0  0 21
    6.4190   -0.9660    1.3100 C   0  0  0  0  0  0  0  0  0 22
   -4.9690   -3.0410    1.8890 C   0  0  0  0  0  0  0  0  0 23
   -6.3450   -0.5280   -1.7230 C   0  0  0  0  0  0  0  0  0 24
    0.3100    3.3800    1.2190 C   0  0  0  0  0  0  0  0  0 25
    0.2690    3.3900   -1.1970 C   0  0  0  0  0  0  0  0  0 26
    0.4480    4.7680    1.2230 C   0  0  0  0  0  0  0  0  0 27
    0.4070    4.7780   -1.1930 C   0  0  0  0  0  0  0  0  0 28
    0.4970    5.4680    0.0160 C   0  0  0  0  0  0  0  0  0 29
    5.4570   -3.6600    0.3700 H   0  0  0  0  0  0  0  0  0 30
    3.7280   -3.6610    0.5460 H   0  0  0  0  0  0  0  0  0 31
    6.6240   -1.8990   -0.6060 H   0  0  0  0  0  0  0  0  0 32
    5.9740   -0.2940   -0.7330 H   0  0  0  0  0  0  0  0  0 33
   -6.6250   -1.9070    1.1840 H   0  0  0  0  0  0  0  0  0 34
   -5.5070   -0.9400    2.0780 H   0  0  0  0  0  0  0  0  0 35
   -6.3340   -2.5190   -0.9740 H   0  0  0  0  0  0  0  0  0 36
   -4.9200   -2.1640   -1.9010 H   0  0  0  0  0  0  0  0  0 37
    0.1420   -1.4790   -0.0170 H   0  0  0  0  0  0  0  0  0 38
    2.6250    2.2030   -0.0240 H   0  0  0  0  0  0  0  0  0 39
   -1.3920    0.4990   -2.1270 H   0  0  0  0  0  0  0  0  0 40
   -1.3190    0.4810    2.1810 H   0  0  0  0  0  0  0  0  0 41
    2.0480   -2.7990   -0.0740 H   0  0  0  0  0  0  0  0  0 42
    4.5630    0.9290   -0.0490 H   0  0  0  0  0  0  0  0  0 43
   -3.5250   -0.6230   -2.1210 H   0  0  0  0  0  0  0  0  0 44
   -3.4510   -0.6400    2.2380 H   0  0  0  0  0  0  0  0  0 45
    3.5570   -3.4350   -2.0330 H   0  0  0  0  0  0  0  0  0 46
    5.3220   -3.4500   -2.1100 H   0  0  0  0  0  0  0  0  0 47
    4.4510   -4.8780   -1.5390 H   0  0  0  0  0  0  0  0  0 48
    5.7730   -0.2690    1.8540 H   0  0  0  0  0  0  0  0  0 49
    6.4490   -1.9020    1.8810 H   0  0  0  0  0  0  0  0  0 50
    7.4300   -0.5480    1.3080 H   0  0  0  0  0  0  0  0  0 51
   -5.1020   -3.8610    1.1750 H   0  0  0  0  0  0  0  0  0 52
   -3.9000   -2.9640    2.1040 H   0  0  0  0  0  0  0  0  0 53
   -5.4790   -3.3170    2.8180 H   0  0  0  0  0  0  0  0  0 54
   -7.0850   -0.1590   -1.0040 H   0  0  0  0  0  0  0  0  0 55
   -5.6810    0.3070   -1.9670 H   0  0  0  0  0  0  0  0  0 56
   -6.8760   -0.8120   -2.6360 H   0  0  0  0  0  0  0  0  0 57
    0.2730    2.8460    2.1640 H   0  0  0  0  0  0  0  0  0 58
    0.2000    2.8650   -2.1450 H   0  0  0  0  0  0  0  0  0 59
    0.5180    5.3050    2.1640 H   0  0  0  0  0  0  0  0  0 60
    0.4450    5.3230   -2.1320 H   0  0  0  0  0  0  0  0  0 61
    0.6040    6.5480    0.0190 H   0  0  0  0  0  0  0  0  0 62
  1  8  1  0  0  0
  1  6  2  0  0  0
  1  9  1  0  0  0
  2  7  1  0  0  0
  2 10  1  0  0  0
  2 11  1  0  0  0
  3  5  1  0  0  0
  3 12  1  0  0  0
  3  4  2  0  0  0
  4 14  1  0  0  0
  4 13  1  0  0  0
  5 16  2  0  0  0
  5 15  1  0  0  0
  6 17  1  0  0  0
  6 18  1  0  0  0
  7 20  2  0  0  0
  7 19  1  0  0  0
  8 21  1  0  0  0
  8 31  1  0  0  0
  8 30  1  0  0  0
  9 33  1  0  0  0
  9 32  1  0  0  0
  9 22  1  0  0  0
 10 34  1  0  0  0
 10 35  1  0  0  0
 10 23  1  0  0  0
 11 24  1  0  0  0
 11 36  1  0  0  0
 11 37  1  0  0  0
 12 25  2  0  0  0
 12 26  1  0  0  0
 13 38  1  0  0  0
 13 17  2  0  0  0
 14 18  2  0  0  0
 14 39  1  0  0  0
 15 19  2  0  0  0
 15 40  1  0  0  0
 16 20  1  0  0  0
 16 41  1  0  0  0
 17 42  1  0  0  0
 18 43  1  0  0  0
 19 44  1  0  0  0
 20 45  1  0  0  0
 21 48  1  0  0  0
 21 46  1  0  0  0
 21 47  1  0  0  0
 22 51  1  0  0  0
 22 49  1  0  0  0
 22 50  1  0  0  0
 23 53  1  0  0  0
 23 54  1  0  0  0
 23 52  1  0  0  0
 24 55  1  0  0  0
 24 56  1  0  0  0
 24 57  1  0  0  0
 25 27  1  0  0  0
 25 58  1  0  0  0
 26 28  2  0  0  0
 26 59  1  0  0  0
 27 29  2  0  0  0
 27 60  1  0  0  0
 28 61  1  0  0  0
 28 29  1  0  0  0
 29 62  1  0  0  0
M  END
M  CHG  1  1  1
