@<TRIPOS>MOLECULE
MOL
   36    38     1     0     0
SMALL
resp


@<TRIPOS>ATOM
      1 N1          4.5530    0.4680    0.0170 nh        1 MOL     -0.046609
      2 N2         -0.2090    1.0960    0.0670 na        1 MOL     -0.184320
      3 N3         -0.5870   -1.6270   -0.0960 nc        1 MOL     -0.508991
      4 N4         -4.9550    1.7950    0.1220 nh        1 MOL     -0.850652
      5 C1          0.8460    0.2680    0.0140 cd        1 MOL      0.034426
      6 C2         -1.6420   -0.7990   -0.0430 ca        1 MOL      0.452437
      7 C3          0.6530   -1.1150   -0.0680 cd        1 MOL      0.496642
      8 C4         -1.4500    0.5840    0.0400 ca        1 MOL      0.032237
      9 C5          3.2510   -0.0700   -0.0130 cc        1 MOL      0.146554
     10 C6          2.1430    0.7740    0.0410 cc        1 MOL     -0.309540
     11 C7         -4.0480   -0.4620   -0.0150 ca        1 MOL      0.113265
     12 C8         -2.9400   -1.3050   -0.0700 ca        1 MOL     -0.280134
     13 C9         -3.8580    0.9100    0.0670 ca        1 MOL      0.322173
     14 C10        -2.5620    1.4230    0.0940 ca        1 MOL     -0.399644
     15 C11         1.7650   -1.9530   -0.1230 cd        1 MOL     -0.237225
     16 C12         3.0610   -1.4410   -0.0960 cc        1 MOL     -0.148317
     17 C13        -5.4160   -1.0570   -0.0480 c3        1 MOL     -0.307603
     18 C14         5.6470   -0.2880    0.5960 c3        1 MOL     -0.235846
     19 C15         4.8210    1.7770   -0.5430 c3        1 MOL     -0.235846
     20 H1          2.2700    1.8520    0.1180 ha        1 MOL      0.165898
     21 H2         -3.0830   -2.3830   -0.1340 ha        1 MOL      0.199227
     22 H3         -2.4110    2.4990    0.1590 ha        1 MOL      0.208762
     23 H4          1.6280   -3.0310   -0.1900 ha        1 MOL      0.192578
     24 H5          3.8930   -2.1370   -0.1510 ha        1 MOL      0.170893
     25 H6         -5.9720   -0.6970   -0.9210 hc        1 MOL      0.113324
     26 H7         -5.3840   -2.1500   -0.1130 hc        1 MOL      0.113324
     27 H8         -5.9680   -0.8040    0.8650 hc        1 MOL      0.113324
     28 H9          6.4890    0.3650    0.8470 h1        1 MOL      0.113492
     29 H10         6.0140   -1.0420   -0.1100 h1        1 MOL      0.113492
     30 H11         5.3450   -0.7840    1.5250 h1        1 MOL      0.113492
     31 H12         4.2930    1.9240   -1.4920 h1        1 MOL      0.113492
     32 H13         5.8890    1.9060   -0.7540 h1        1 MOL      0.113492
     33 H14         4.5270    2.5670    0.1570 h1        1 MOL      0.113492
     34 H15        -4.7920    2.7910    0.1850 hn        1 MOL      0.417362
     35 H16        -5.9040    1.4490    0.1070 hn        1 MOL      0.417362
     36 H17        -0.0730    2.0850    0.1260 hn        1 MOL      0.353987
@<TRIPOS>BOND
     1    1    9 2   
     2    1   18 1   
     3    1   19 1   
     4    2    5 1   
     5    2    8 1   
     6    2   36 1   
     7    3    6 1   
     8    3    7 2   
     9    4   13 1   
    10    4   34 1   
    11    4   35 1   
    12    5    7 1   
    13    5   10 2   
    14    6    8 ar  
    15    6   12 ar  
    16    7   15 1   
    17    8   14 ar  
    18    9   10 1   
    19    9   16 1   
    20   10   20 1   
    21   11   12 ar  
    22   11   13 ar  
    23   11   17 1   
    24   12   21 1   
    25   13   14 ar  
    26   14   22 1   
    27   15   16 2   
    28   15   23 1   
    29   16   24 1   
    30   17   25 1   
    31   17   26 1   
    32   17   27 1   
    33   18   28 1   
    34   18   29 1   
    35   18   30 1   
    36   19   31 1   
    37   19   32 1   
    38   19   33 1   
@<TRIPOS>SUBSTRUCTURE
     1 MOL         1 TEMP              0 ****  ****    0 ROOT
