@<TRIPOS>MOLECULE
MOL
   24    24     1     0     0
SMALL
resp


@<TRIPOS>ATOM
      1 C1         -0.6750   -1.2030   -0.1700 ca        1 MOL     -0.168071
      2 C2          0.6750   -1.2040    0.1700 ca        1 MOL     -0.168071
      3 C3          1.3610   -0.0000    0.3400 ca        1 MOL     -0.018728
      4 C4          0.6750    1.2040    0.1690 ca        1 MOL     -0.168071
      5 C5         -0.6750    1.2040   -0.1690 ca        1 MOL     -0.168071
      6 C6         -1.3610   -0.0000   -0.3400 ca        1 MOL     -0.018728
      7 C7         -2.8320   -0.0000   -0.6920 c3        1 MOL      0.049510
      8 C8          2.8310    0.0000    0.6920 c3        1 MOL      0.049510
      9 N1         -3.4700    0.0000    0.6160 n4        1 MOL     -0.313657
     10 N2          3.4710   -0.0000   -0.6160 n4        1 MOL     -0.313657
     11 H1         -3.1550   -0.8220    1.1120 hn        1 MOL      0.328481
     12 H2         -4.4750    0.0000    0.5040 hn        1 MOL      0.328481
     13 H3         -3.1550    0.8210    1.1120 hn        1 MOL      0.328481
     14 H4          4.4750   -0.0000   -0.5050 hn        1 MOL      0.328481
     15 H5          3.1550    0.8220   -1.1120 hn        1 MOL      0.328481
     16 H6          3.1550   -0.8210   -1.1120 hn        1 MOL      0.328481
     17 H7         -1.1730   -2.1320   -0.3010 ha        1 MOL      0.191901
     18 H8          1.1740   -2.1320    0.3010 ha        1 MOL      0.191901
     19 H9          1.1740    2.1330    0.3000 ha        1 MOL      0.191901
     20 H10        -1.1730    2.1320   -0.3000 ha        1 MOL      0.191901
     21 H11        -3.0700   -0.9050   -1.2410 hx        1 MOL      0.124886
     22 H12        -3.0700    0.9050   -1.2420 hx        1 MOL      0.124886
     23 H13         3.0710    0.9050    1.2420 hx        1 MOL      0.124886
     24 H14         3.0710   -0.9050    1.2420 hx        1 MOL      0.124886
@<TRIPOS>BOND
     1    1    2 ar  
     2    1    6 ar  
     3    1   17 1   
     4    2    3 ar  
     5    2   18 1   
     6    3    4 ar  
     7    3    8 1   
     8    4    5 ar  
     9    4   19 1   
    10    5    6 ar  
    11    5   20 1   
    12    6    7 1   
    13    7    9 1   
    14    7   21 1   
    15    7   22 1   
    16    8   10 1   
    17    8   23 1   
    18    8   24 1   
    19    9   11 1   
    20    9   12 1   
    21    9   13 1   
    22   10   14 1   
    23   10   15 1   
    24   10   16 1   
@<TRIPOS>SUBSTRUCTURE
     1 MOL         1 TEMP              0 ****  ****    0 ROOT
