@<TRIPOS>MOLECULE
MOL
   56    59     1     0     0
SMALL
resp


@<TRIPOS>ATOM
      1 C1         -0.5580   -2.2780   -0.0070 ca        1 MOL     -0.084205
      2 C2         -1.2700   -1.1240   -0.1650 ca        1 MOL     -0.031244
      3 C3         -0.6220    0.1320   -0.1510 ca        1 MOL     -0.022976
      4 C4          0.7640    0.1840    0.0370 ca        1 MOL     -0.022976
      5 C5          1.4840   -1.0220    0.1950 ca        1 MOL     -0.031244
      6 C6          0.8410   -2.2270    0.1700 ca        1 MOL     -0.084205
      7 C7         -1.3420    1.3380   -0.3110 ca        1 MOL     -0.031244
      8 C8          1.4120    1.4400    0.0640 ca        1 MOL     -0.031244
      9 C9          0.7000    2.5940   -0.0940 ca        1 MOL     -0.084205
     10 C10        -0.6990    2.5430   -0.2830 ca        1 MOL     -0.084205
     11 C11         2.9520   -0.9780    0.4140 c         1 MOL      0.427725
     12 C12         2.8800    1.4940    0.2890 c         1 MOL      0.427725
     13 O1          3.6170   -1.9670    0.5180 o         1 MOL     -0.471437
     14 O2          3.5050    2.5060    0.3050 o         1 MOL     -0.471437
     15 N1          3.5360    0.2810    0.5050 n         1 MOL     -0.036479
     16 C13         4.9250    0.3760    0.9480 c3        1 MOL     -0.155016
     17 C14         5.9090    0.8010   -0.1580 c3        1 MOL     -0.180380
     18 N2          6.9400   -0.2470   -0.5270 n4        1 MOL     -0.016270
     19 C15         7.8220   -0.6590    0.6090 c3        1 MOL     -0.246972
     20 C16         6.3640   -1.4320   -1.2420 c3        1 MOL     -0.246972
     21 C17        -2.7430   -1.1860   -0.3460 c         1 MOL      0.427725
     22 C18        -2.8140    1.2890   -0.5070 c         1 MOL      0.427725
     23 O3         -3.3610   -2.2060   -0.3080 o         1 MOL     -0.471437
     24 O4         -3.4940    2.2640   -0.6070 o         1 MOL     -0.471437
     25 N3         -3.3990    0.0240   -0.5640 n         1 MOL     -0.036479
     26 C19        -4.8210   -0.0380   -0.8660 c3        1 MOL     -0.155016
     27 C20        -5.6520    0.1420    0.4110 c3        1 MOL     -0.180380
     28 N4         -7.1100   -0.1390    0.1600 n4        1 MOL     -0.016270
     29 C21        -7.4160   -1.6070    0.1330 c3        1 MOL     -0.246972
     30 C22        -7.9850    0.5710    1.1440 c3        1 MOL     -0.246972
     31 H1         -1.0670   -3.2230   -0.0180 ha        1 MOL      0.175278
     32 H2          1.4030   -3.1320    0.2950 ha        1 MOL      0.175278
     33 H3          1.2060    3.5400   -0.0670 ha        1 MOL      0.175278
     34 H4         -1.2610    3.4480   -0.4050 ha        1 MOL      0.175278
     35 H5          5.1790   -0.5790    1.3750 h1        1 MOL      0.143812
     36 H6          4.9640    1.1150    1.7340 h1        1 MOL      0.143812
     37 H7          6.4690    1.6730    0.1530 hx        1 MOL      0.164059
     38 H8          5.3900    1.0480   -1.0710 hx        1 MOL      0.164059
     39 H9          7.5440    0.2150   -1.1910 hn        1 MOL      0.316842
     40 H10         7.2710   -1.3090    1.2730 hx        1 MOL      0.156708
     41 H11         8.1590    0.2220    1.1390 hx        1 MOL      0.156708
     42 H12         8.6710   -1.1950    0.2070 hx        1 MOL      0.156708
     43 H13         5.6810   -1.9490   -0.5830 hx        1 MOL      0.156708
     44 H14         7.1760   -2.0820   -1.5330 hx        1 MOL      0.156708
     45 H15         5.8410   -1.0840   -2.1190 hx        1 MOL      0.156708
     46 H16        -5.0470    0.7420   -1.5700 h1        1 MOL      0.143812
     47 H17        -5.0080   -0.9970   -1.3310 h1        1 MOL      0.143812
     48 H18        -5.3320   -0.5250    1.1950 hx        1 MOL      0.164059
     49 H19        -5.5700    1.1660    0.7580 hx        1 MOL      0.164059
     50 H20        -7.3390    0.2340   -0.7520 hn        1 MOL      0.316842
     51 H21        -7.2630   -2.0000    1.1270 hx        1 MOL      0.156708
     52 H22        -6.7570   -2.1020   -0.5620 hx        1 MOL      0.156708
     53 H23        -8.4440   -1.7450   -0.1660 hx        1 MOL      0.156708
     54 H24        -7.7320    0.2290    2.1350 hx        1 MOL      0.156708
     55 H25        -9.0170    0.3410    0.9240 hx        1 MOL      0.156708
     56 H26        -7.8160    1.6340    1.0620 hx        1 MOL      0.156708
@<TRIPOS>BOND
     1    1    2 ar  
     2    1    6 ar  
     3    1   31 1   
     4    2    3 ar  
     5    2   21 1   
     6    3    4 ar  
     7    3    7 ar  
     8    4    5 ar  
     9    4    8 ar  
    10    5    6 ar  
    11    5   11 1   
    12    6   32 1   
    13    7   10 ar  
    14    7   22 1   
    15    8    9 ar  
    16    8   12 1   
    17    9   10 ar  
    18    9   33 1   
    19   10   34 1   
    20   11   13 2   
    21   11   15 1   
    22   12   14 2   
    23   12   15 1   
    24   15   16 1   
    25   16   17 1   
    26   16   35 1   
    27   16   36 1   
    28   17   18 1   
    29   17   37 1   
    30   17   38 1   
    31   18   19 1   
    32   18   20 1   
    33   18   39 1   
    34   19   40 1   
    35   19   41 1   
    36   19   42 1   
    37   20   43 1   
    38   20   44 1   
    39   20   45 1   
    40   21   23 2   
    41   21   25 1   
    42   22   24 2   
    43   22   25 1   
    44   25   26 1   
    45   26   27 1   
    46   26   46 1   
    47   26   47 1   
    48   27   28 1   
    49   27   48 1   
    50   27   49 1   
    51   28   29 1   
    52   28   30 1   
    53   28   50 1   
    54   29   51 1   
    55   29   52 1   
    56   29   53 1   
    57   30   54 1   
    58   30   55 1   
    59   30   56 1   
@<TRIPOS>SUBSTRUCTURE
     1 MOL         1 TEMP              0 ****  ****    0 ROOT
