@<TRIPOS>MOLECULE
MOL
   38    40     1     0     0
SMALL
resp


@<TRIPOS>ATOM
      1 S1          0.0000   -1.3090    0.0760 ss        1 MOL     -0.007702
      2 N1         -5.0580   -0.5500    0.0420 nh        1 MOL     -0.023155
      3 N2          5.0480   -0.5480    0.0360 nh        1 MOL     -0.023155
      4 N3          0.0040    1.7750   -0.1290 nc        1 MOL     -0.455294
      5 C1         -1.3570   -0.2500    0.0080 cd        1 MOL      0.033413
      6 C2          1.3660   -0.2560    0.0060 ca        1 MOL      0.033413
      7 C3         -1.1750    1.1620   -0.0860 cd        1 MOL      0.393421
      8 C4          1.1900    1.1580   -0.0880 ca        1 MOL      0.393421
      9 C5         -3.7660    0.0010   -0.0010 cc        1 MOL      0.055817
     10 C6          3.7680   -0.0030   -0.0070 ca        1 MOL      0.055817
     11 C7         -2.6390   -0.8180    0.0520 cc        1 MOL     -0.230425
     12 C8          2.6470   -0.8230    0.0480 ca        1 MOL     -0.230425
     13 C9         -2.3440    1.9700   -0.1400 cd        1 MOL     -0.197237
     14 C10         2.3580    1.9660   -0.1450 ca        1 MOL     -0.197237
     15 C11        -3.6010    1.4200   -0.1000 cc        1 MOL     -0.111109
     16 C12         3.6100    1.4110   -0.1070 ca        1 MOL     -0.111109
     17 C13        -5.3040   -1.9850   -0.2210 c3        1 MOL     -0.244262
     18 C14        -6.2470    0.2620    0.3820 c3        1 MOL     -0.244262
     19 C15         6.2110    0.2380    0.4860 c3        1 MOL     -0.244262
     20 C16         5.3010   -1.9540   -0.3270 c3        1 MOL     -0.244262
     21 H1         -2.7160   -1.8710    0.1380 ha        1 MOL      0.216545
     22 H2          2.7430   -1.8710    0.1370 ha        1 MOL      0.216545
     23 H3         -2.2110    3.0210   -0.2150 ha        1 MOL      0.181949
     24 H4          2.2380    3.0160   -0.2210 ha        1 MOL      0.181949
     25 H5         -4.4480    2.0560   -0.1570 ha        1 MOL      0.159812
     26 H6          4.4670    2.0280   -0.1670 ha        1 MOL      0.159812
     27 H7         -5.1080   -2.5270    0.6940 h1        1 MOL      0.123499
     28 H8         -4.6480   -2.3040   -1.0210 h1        1 MOL      0.123499
     29 H9         -6.3350   -2.1080   -0.5280 h1        1 MOL      0.123499
     30 H10        -7.0250   -0.3980    0.7430 h1        1 MOL      0.123499
     31 H11        -6.5650    0.7750   -0.5160 h1        1 MOL      0.123499
     32 H12        -5.9720    0.9590    1.1630 h1        1 MOL      0.123499
     33 H13         5.8820    0.9050    1.2730 h1        1 MOL      0.123499
     34 H14         6.5860    0.7860   -0.3680 h1        1 MOL      0.123499
     35 H15         6.9590   -0.4430    0.8710 h1        1 MOL      0.123499
     36 H16         4.6390   -2.2160   -1.1420 h1        1 MOL      0.123499
     37 H17         5.1100   -2.5580    0.5500 h1        1 MOL      0.123499
     38 H18         6.3310   -2.0450   -0.6470 h1        1 MOL      0.123499
@<TRIPOS>BOND
     1    1    5 1   
     2    1    6 1   
     3    2    9 2   
     4    2   17 1   
     5    2   18 1   
     6    3   10 1   
     7    3   19 1   
     8    3   20 1   
     9    4    7 2   
    10    4    8 1   
    11    5    7 1   
    12    5   11 2   
    13    6    8 ar  
    14    6   12 ar  
    15    7   13 1   
    16    8   14 ar  
    17    9   11 1   
    18    9   15 1   
    19   10   12 ar  
    20   10   16 ar  
    21   11   21 1   
    22   12   22 1   
    23   13   15 2   
    24   13   23 1   
    25   14   16 ar  
    26   14   24 1   
    27   15   25 1   
    28   16   26 1   
    29   17   27 1   
    30   17   28 1   
    31   17   29 1   
    32   18   30 1   
    33   18   31 1   
    34   18   32 1   
    35   19   33 1   
    36   19   34 1   
    37   19   35 1   
    38   20   36 1   
    39   20   37 1   
    40   20   38 1   
@<TRIPOS>SUBSTRUCTURE
     1 MOL         1 TEMP              0 ****  ****    0 ROOT
