CB Clip guest1
  DSViewer          3D                             0

 24 24  0  0  0  0  0  0  0  0999 V2000
    2.0850    1.5220   -1.2750 C   0  0  0  0  0  0  0  0  0  1
    3.2030    0.8610   -0.7750 C   0  0  0  0  0  0  0  0  0  2
    3.1680    0.2700    0.4890 C   0  0  0  0  0  0  0  0  0  3
    1.9960    0.3460    1.2430 C   0  0  0  0  0  0  0  0  0  4
    0.8770    1.0060    0.7420 C   0  0  0  0  0  0  0  0  0  5
    0.9130    1.5980   -0.5220 C   0  0  0  0  0  0  0  0  0  6
   -0.3080    2.3010   -1.0730 C   0  0  0  0  0  0  0  0  0  7
    4.3880   -0.4330    1.0400 C   0  0  0  0  0  0  0  0  0  8
   -1.0060    1.2270   -1.7650 N   0  3  0  0  0  0  0  0  0  9
    5.0870    0.6400    1.7320 N   0  3  0  0  0  0  0  0  0 10
   -0.3800    0.8560   -2.4660 H   0  0  0  0  0  0  0  0  0 11
   -1.8540    1.5860   -2.1810 H   0  0  0  0  0  0  0  0  0 12
   -1.2040    0.5040   -1.0890 H   0  0  0  0  0  0  0  0  0 13
    5.9350    0.2820    2.1480 H   0  0  0  0  0  0  0  0  0 14
    4.4610    1.0120    2.4330 H   0  0  0  0  0  0  0  0  0 15
    5.2850    1.3640    1.0560 H   0  0  0  0  0  0  0  0  0 16
    2.1390    1.9700   -2.2370 H   0  0  0  0  0  0  0  0  0 17
    4.0820    0.8110   -1.3700 H   0  0  0  0  0  0  0  0  0 18
    1.9420   -0.1020    2.2050 H   0  0  0  0  0  0  0  0  0 19
   -0.0010    1.0560    1.3370 H   0  0  0  0  0  0  0  0  0 20
    0.0050    3.0730   -1.7680 H   0  0  0  0  0  0  0  0  0 21
   -0.9030    2.6860   -0.2510 H   0  0  0  0  0  0  0  0  0 22
    4.0760   -1.2060    1.7350 H   0  0  0  0  0  0  0  0  0 23
    4.9840   -0.8180    0.2180 H   0  0  0  0  0  0  0  0  0 24
  1  2  1  0  0  0
  1  6  2  0  0  0
  1 17  1  0  0  0
  2  3  2  0  0  0
  2 18  1  0  0  0
  3  4  1  0  0  0
  3  8  1  0  0  0
  4  5  2  0  0  0
  4 19  1  0  0  0
  5  6  1  0  0  0
  5 20  1  0  0  0
  6  7  1  0  0  0
  7  9  1  0  0  0
  7 21  1  0  0  0
  7 22  1  0  0  0
  8 10  1  0  0  0
  8 23  1  0  0  0
  8 24  1  0  0  0
  9 11  1  0  0  0
  9 12  1  0  0  0
  9 13  1  0  0  0
 10 14  1  0  0  0
 10 15  1  0  0  0
 10 16  1  0  0  0
M  CHG  2   9   1  10   1
M  END
