@<TRIPOS>MOLECULE
MOL
   40    42     1     0     0
SMALL
resp


@<TRIPOS>ATOM
      1 C1         -3.6060   -0.1410    0.0260 ca        1 MOL      0.065836
      2 C2         -2.3830   -0.8120    0.0200 ca        1 MOL     -0.216267
      3 C3         -1.2020   -0.0660    0.0090 ca        1 MOL      0.084119
      4 C4         -1.2060    1.3580    0.0010 ca        1 MOL      0.068402
      5 C5         -2.4690    2.0140    0.0070 ca        1 MOL     -0.194308
      6 C6         -3.6360    1.2920    0.0210 ca        1 MOL     -0.117930
      7 C7          0.0030    2.0560   -0.0120 ca        1 MOL     -0.033415
      8 C8          1.2130    1.3590   -0.0170 ca        1 MOL      0.068402
      9 C9          1.2070   -0.0640   -0.0120 ca        1 MOL      0.084119
     10 C10         2.3880   -0.8110   -0.0150 ca        1 MOL     -0.216267
     11 C11         3.6090   -0.1430   -0.0250 ca        1 MOL      0.065836
     12 C12         3.6440    1.2850   -0.0340 ca        1 MOL     -0.117930
     13 C13         2.4790    2.0120   -0.0290 ca        1 MOL     -0.194308
     14 N1          0.0020   -0.7230    0.0020 na        1 MOL     -0.248528
     15 N2         -4.8140   -0.8560    0.0370 nh        1 MOL     -0.029954
     16 N3          4.8050   -0.8560   -0.0260 nh        1 MOL     -0.029954
     17 C14        -6.0890   -0.2450   -0.3920 c3        1 MOL     -0.239387
     18 C15        -4.8750   -2.2720    0.4560 c3        1 MOL     -0.239387
     19 C16         6.0550   -0.2700    0.4920 c3        1 MOL     -0.239387
     20 C17         4.8780   -2.2410   -0.5230 c3        1 MOL     -0.239387
     21 H1         -2.3230   -1.8670    0.0100 ha        1 MOL      0.145520
     22 H2         -2.4900    3.0750    0.0060 ha        1 MOL      0.186196
     23 H3         -4.5610    1.8070    0.0410 ha        1 MOL      0.152672
     24 H4          0.0070    3.1150   -0.0170 ha        1 MOL      0.171337
     25 H5          2.3480   -1.8650    0.0080 ha        1 MOL      0.145520
     26 H6          4.5760    1.7800   -0.0600 ha        1 MOL      0.152672
     27 H7          2.5100    3.0700   -0.0390 ha        1 MOL      0.186196
     28 H8         -5.8870    0.4150   -1.2260 h1        1 MOL      0.119178
     29 H9         -6.4960    0.2940    0.4530 h1        1 MOL      0.119178
     30 H10        -6.7600   -1.0330   -0.7060 h1        1 MOL      0.119178
     31 H11        -4.1750   -2.4180    1.2690 h1        1 MOL      0.119178
     32 H12        -4.6210   -2.8800   -0.4030 h1        1 MOL      0.119178
     33 H13        -5.8790   -2.4860    0.7970 h1        1 MOL      0.119178
     34 H14         6.5190    0.2770   -0.3180 h1        1 MOL      0.119178
     35 H15         6.6920   -1.0730    0.8360 h1        1 MOL      0.119178
     36 H16         5.8040    0.3810    1.3190 h1        1 MOL      0.119178
     37 H17         5.8850   -2.4240   -0.8720 h1        1 MOL      0.119178
     38 H18         4.1810   -2.3410   -1.3430 h1        1 MOL      0.119178
     39 H19         4.6240   -2.8970    0.2990 h1        1 MOL      0.119178
     40 H20         0.0280   -1.7550    0.0070 hn        1 MOL      0.349448
@<TRIPOS>BOND
     1    1    2 ar  
     2    1    6 ar  
     3    1   15 1   
     4    2    3 ar  
     5    2   21 1   
     6    3    4 ar  
     7    3   14 1   
     8    4    5 ar  
     9    4    7 ar  
    10    5    6 ar  
    11    5   22 1   
    12    6   23 1   
    13    7    8 ar  
    14    7   24 1   
    15    8    9 ar  
    16    8   13 ar  
    17    9   10 ar  
    18    9   14 2   
    19   10   11 ar  
    20   10   25 1   
    21   11   12 ar  
    22   11   16 1   
    23   12   13 ar  
    24   12   26 1   
    25   13   27 1   
    26   14   40 1   
    27   15   17 1   
    28   15   18 1   
    29   16   19 1   
    30   16   20 1   
    31   17   28 1   
    32   17   29 1   
    33   17   30 1   
    34   18   31 1   
    35   18   32 1   
    36   18   33 1   
    37   19   34 1   
    38   19   35 1   
    39   19   36 1   
    40   20   37 1   
    41   20   38 1   
    42   20   39 1   
@<TRIPOS>SUBSTRUCTURE
     1 MOL         1 TEMP              0 ****  ****    0 ROOT
