@<TRIPOS>MOLECULE
MOL
   62    64     1     0     0
SMALL
resp


@<TRIPOS>ATOM
      1 N1          4.5970   -1.8060   -0.0880 nh        1 MOL     -0.027671
      2 N2         -4.9280   -1.3900    0.0800 nh        1 MOL     -0.027671
      3 C1          0.0760    1.2440    0.0060 ce        1 MOL      0.055799
      4 C2          1.1890    0.4930   -0.0170 cd        1 MOL      0.054951
      5 C3         -1.2390    0.5510    0.0250 ca        1 MOL      0.054951
      6 C4          3.5330   -1.0880   -0.0670 cc        1 MOL      0.098718
      7 C5         -3.6800   -0.7330    0.0620 ca        1 MOL      0.098718
      8 C6          4.5330   -3.2910   -0.0920 c3        1 MOL     -0.201678
      9 C7          5.9500   -1.1910   -0.1110 c3        1 MOL     -0.201678
     10 C8         -5.5500   -1.7480    1.3390 c3        1 MOL     -0.201678
     11 C9         -5.5990   -1.7260   -1.1600 c3        1 MOL     -0.201678
     12 C10         0.2230    2.7230    0.0090 ca        1 MOL     -0.009412
     13 C11         1.0920   -0.9590   -0.0210 cd        1 MOL     -0.150582
     14 C12         2.4990    1.1260   -0.0370 cd        1 MOL     -0.150582
     15 C13        -1.8480    0.2470   -1.1740 ca        1 MOL     -0.150582
     16 C14        -1.8080    0.2370    1.2420 ca        1 MOL     -0.150582
     17 C15         2.1900   -1.7260   -0.0440 cc        1 MOL     -0.169982
     18 C16         3.6220    0.3960   -0.0620 cc        1 MOL     -0.169982
     19 C17        -3.0840   -0.4020   -1.1550 ca        1 MOL     -0.169982
     20 C18        -3.0420   -0.4120    1.2600 ca        1 MOL     -0.169982
     21 C19         4.4610   -3.7840   -1.5210 c3        1 MOL     -0.142724
     22 C20         6.4190   -0.9660    1.3100 c3        1 MOL     -0.142724
     23 C21        -4.9690   -3.0410    1.8890 c3        1 MOL     -0.142724
     24 C22        -6.3450   -0.5280   -1.7230 c3        1 MOL     -0.142724
     25 C23         0.3100    3.3800    1.2190 ca        1 MOL     -0.096370
     26 C24         0.2690    3.3900   -1.1970 ca        1 MOL     -0.096370
     27 C25         0.4480    4.7680    1.2230 ca        1 MOL     -0.149440
     28 C26         0.4070    4.7780   -1.1930 ca        1 MOL     -0.149440
     29 C27         0.4970    5.4680    0.0160 ca        1 MOL     -0.093099
     30 H1          5.4570   -3.6600    0.3700 h1        1 MOL      0.134775
     31 H2          3.7280   -3.6610    0.5460 h1        1 MOL      0.134775
     32 H3          6.6240   -1.8990   -0.6060 h1        1 MOL      0.134775
     33 H4          5.9740   -0.2940   -0.7330 h1        1 MOL      0.134775
     34 H5         -6.6250   -1.9070    1.1840 h1        1 MOL      0.134775
     35 H6         -5.5070   -0.9400    2.0780 h1        1 MOL      0.134775
     36 H7         -6.3340   -2.5190   -0.9740 h1        1 MOL      0.134775
     37 H8         -4.9200   -2.1640   -1.9010 h1        1 MOL      0.134775
     38 H9          0.1420   -1.4790   -0.0170 ha        1 MOL      0.165542
     39 H10         2.6250    2.2030   -0.0240 ha        1 MOL      0.165542
     40 H11        -1.3920    0.4990   -2.1270 ha        1 MOL      0.165542
     41 H12        -1.3190    0.4810    2.1810 ha        1 MOL      0.165542
     42 H13         2.0480   -2.7990   -0.0740 ha        1 MOL      0.164678
     43 H14         4.5630    0.9290   -0.0490 ha        1 MOL      0.164678
     44 H15        -3.5250   -0.6230   -2.1210 ha        1 MOL      0.164678
     45 H16        -3.4510   -0.6400    2.2380 ha        1 MOL      0.164678
     46 H17         3.5570   -3.4350   -2.0330 hc        1 MOL      0.070250
     47 H18         5.3220   -3.4500   -2.1100 hc        1 MOL      0.070250
     48 H19         4.4510   -4.8780   -1.5390 hc        1 MOL      0.070250
     49 H20         5.7730   -0.2690    1.8540 hc        1 MOL      0.070250
     50 H21         6.4490   -1.9020    1.8810 hc        1 MOL      0.070250
     51 H22         7.4300   -0.5480    1.3080 hc        1 MOL      0.070250
     52 H23        -5.1020   -3.8610    1.1750 hc        1 MOL      0.070250
     53 H24        -3.9000   -2.9640    2.1040 hc        1 MOL      0.070250
     54 H25        -5.4790   -3.3170    2.8180 hc        1 MOL      0.070250
     55 H26        -7.0850   -0.1590   -1.0040 hc        1 MOL      0.070250
     56 H27        -5.6810    0.3070   -1.9670 hc        1 MOL      0.070250
     57 H28        -6.8760   -0.8120   -2.6360 hc        1 MOL      0.070250
     58 H29         0.2730    2.8460    2.1640 ha        1 MOL      0.130693
     59 H30         0.2000    2.8650   -2.1450 ha        1 MOL      0.130693
     60 H31         0.5180    5.3050    2.1640 ha        1 MOL      0.150473
     61 H32         0.4450    5.3230   -2.1320 ha        1 MOL      0.150473
     62 H33         0.6040    6.5480    0.0190 ha        1 MOL      0.141789
@<TRIPOS>BOND
     1    1    6 2   
     2    1    8 1   
     3    1    9 1   
     4    2    7 1   
     5    2   10 1   
     6    2   11 1   
     7    3    4 2   
     8    3    5 1   
     9    3   12 1   
    10    4   13 1   
    11    4   14 1   
    12    5   15 ar  
    13    5   16 ar  
    14    6   17 1   
    15    6   18 1   
    16    7   19 ar  
    17    7   20 ar  
    18    8   21 1   
    19    8   30 1   
    20    8   31 1   
    21    9   22 1   
    22    9   32 1   
    23    9   33 1   
    24   10   23 1   
    25   10   34 1   
    26   10   35 1   
    27   11   24 1   
    28   11   36 1   
    29   11   37 1   
    30   12   25 ar  
    31   12   26 ar  
    32   13   17 2   
    33   13   38 1   
    34   14   18 2   
    35   14   39 1   
    36   15   19 ar  
    37   15   40 1   
    38   16   20 ar  
    39   16   41 1   
    40   17   42 1   
    41   18   43 1   
    42   19   44 1   
    43   20   45 1   
    44   21   46 1   
    45   21   47 1   
    46   21   48 1   
    47   22   49 1   
    48   22   50 1   
    49   22   51 1   
    50   23   52 1   
    51   23   53 1   
    52   23   54 1   
    53   24   55 1   
    54   24   56 1   
    55   24   57 1   
    56   25   27 ar  
    57   25   58 1   
    58   26   28 ar  
    59   26   59 1   
    60   27   29 ar  
    61   27   60 1   
    62   28   29 ar  
    63   28   61 1   
    64   29   62 1   
@<TRIPOS>SUBSTRUCTURE
     1 MOL         1 TEMP              0 ****  ****    0 ROOT
