@<TRIPOS>MOLECULE
MOL
   42    45     1     0     0
SMALL
resp


@<TRIPOS>ATOM
      1 C1         -0.7190    2.4600    0.0110 ca        1 MOL     -0.115338
      2 C2         -1.3990    1.2780    0.0620 ca        1 MOL     -0.043227
      3 C3         -0.6940    0.0600    0.0180 ca        1 MOL      0.005077
      4 C4          0.6990    0.0710   -0.1100 ca        1 MOL      0.005077
      5 C5          1.3890    1.2980   -0.1360 ca        1 MOL     -0.043227
      6 C6          0.6910    2.4700   -0.0700 ca        1 MOL     -0.115338
      7 C7         -1.3800   -1.1670    0.1020 ca        1 MOL     -0.043227
      8 C8          1.4000   -1.1460   -0.2130 ca        1 MOL     -0.043227
      9 C9          0.7160   -2.3280   -0.1670 ca        1 MOL     -0.115338
     10 C10        -0.6860   -2.3380    0.0100 ca        1 MOL     -0.115338
     11 C11         2.8820    1.3090   -0.2380 c         1 MOL      0.458697
     12 C12         2.8850   -1.1300   -0.4050 c         1 MOL      0.458697
     13 O1          3.4770    2.3470   -0.1970 o         1 MOL     -0.491495
     14 O2          3.4840   -2.1550   -0.5700 o         1 MOL     -0.491495
     15 N1          3.5240    0.0950   -0.3970 n         1 MOL     -0.160939
     16 C13         5.0050    0.1030   -0.6120 c3        1 MOL      0.006564
     17 C14         5.8180   -0.2140    0.6420 c3        1 MOL     -0.004579
     18 C15        -2.8910    1.2650    0.1670 c         1 MOL      0.458697
     19 C16        -2.8570   -1.1710    0.3420 c         1 MOL      0.458697
     20 O3         -3.5060    2.2900    0.1060 o         1 MOL     -0.491495
     21 O4         -3.4370   -2.2010    0.5180 o         1 MOL     -0.491495
     22 N2         -3.5090    0.0470    0.3650 n         1 MOL     -0.160939
     23 C17        -4.9770    0.0490    0.6560 c3        1 MOL      0.006564
     24 C18        -5.8580   -0.3040   -0.5350 c3        1 MOL     -0.004579
     25 C19         7.3530   -0.1840    0.3690 c         1 MOL      0.844049
     26 C20        -7.3750   -0.1460   -0.2000 c         1 MOL      0.844049
     27 O5          7.6960    0.2640   -0.7290 o         1 MOL     -0.829837
     28 O6          8.0450   -0.5930    1.2990 o         1 MOL     -0.829837
     29 O7         -7.6300    0.3800    0.8930 o         1 MOL     -0.829837
     30 O8         -8.1390   -0.5620   -1.0740 o         1 MOL     -0.829837
     31 H1         -1.2380    3.3520    0.0320 ha        1 MOL      0.146398
     32 H2          1.1970    3.3690   -0.0790 ha        1 MOL      0.146398
     33 H3          1.2270   -3.2200   -0.2620 ha        1 MOL      0.146398
     34 H4         -1.1880   -3.2370    0.0700 ha        1 MOL      0.146398
     35 H5          5.3040    1.0550   -0.9990 h1        1 MOL      0.053762
     36 H6          5.2120   -0.6810   -1.3100 h1        1 MOL      0.053762
     37 H7          5.5360   -1.1730    1.0240 hc        1 MOL     -0.024046
     38 H8          5.6040    0.5440    1.3660 hc        1 MOL     -0.024046
     39 H9         -5.1800   -0.6260    1.4610 h1        1 MOL      0.053762
     40 H10        -5.2250    1.0570    0.9180 h1        1 MOL      0.053762
     41 H11        -5.6040    0.3140   -1.3710 hc        1 MOL     -0.024046
     42 H12        -5.6820   -1.3310   -0.7780 hc        1 MOL     -0.024046
@<TRIPOS>BOND
     1    1    2 ar  
     2    1    6 ar  
     3    1   31 1   
     4    2    3 ar  
     5    2   18 1   
     6    3    4 ar  
     7    3    7 ar  
     8    4    5 ar  
     9    4    8 ar  
    10    5    6 ar  
    11    5   11 1   
    12    6   32 1   
    13    7   10 ar  
    14    7   19 1   
    15    8    9 ar  
    16    8   12 1   
    17    9   10 ar  
    18    9   33 1   
    19   10   34 1   
    20   11   13 2   
    21   11   15 1   
    22   12   14 2   
    23   12   15 1   
    24   15   16 1   
    25   16   17 1   
    26   16   35 1   
    27   16   36 1   
    28   17   25 1   
    29   17   37 1   
    30   17   38 1   
    31   18   20 2   
    32   18   22 1   
    33   19   21 2   
    34   19   22 1   
    35   22   23 1   
    36   23   24 1   
    37   23   39 1   
    38   23   40 1   
    39   24   26 1   
    40   24   41 1   
    41   24   42 1   
    42   25   27 1   
    43   25   28 1   
    44   26   29 1   
    45   26   30 1   
@<TRIPOS>SUBSTRUCTURE
     1 MOL         1 TEMP              0 ****  ****    0 ROOT
