CB Clip guest3
  DSViewer          3D                             0

 44 43  0  0  0  0  0  0  0  0999 V2000
   -1.1650    2.2630    0.5940 C   0  0  0  0  0  0  0  0  0  1
   -2.1900    3.2650    1.1520 C   0  0  0  0  0  0  0  0  0  2
   -1.5240    4.3350    2.0340 C   0  0  0  0  0  0  0  0  0  3
   -1.8160    1.2360   -0.2550 N   0  3  0  0  0  0  0  0  0  4
   -1.8910    6.3300    3.4160 C   0  0  0  0  0  0  0  0  0  5
   -2.9430    7.3120    3.9540 C   0  0  0  0  0  0  0  0  0  6
   -2.3130    8.4060    4.8450 C   0  0  0  0  0  0  0  0  0  7
   -3.3650    9.3890    5.3820 C   0  0  0  0  0  0  0  0  0  8
   -3.7320   11.3860    6.7620 C   0  0  0  0  0  0  0  0  0  9
   -3.0660   12.4570    7.6410 C   0  0  0  0  0  0  0  0  0 10
   -4.0910   13.4600    8.1980 C   0  0  0  0  0  0  0  0  0 11
   -2.5280    5.2940    2.5640 N   0  3  0  0  0  0  0  0  0 12
   -2.7290   10.4260    6.2330 N   0  3  0  0  0  0  0  0  0 13
   -3.4400   14.4890    9.0440 N   0  3  0  0  0  0  0  0  0 14
   -1.1250    0.5840   -0.6140 H   0  0  0  0  0  0  0  0  0 15
   -2.2800    1.6490   -1.0550 H   0  0  0  0  0  0  0  0  0 16
   -2.4950    0.6940    0.2660 H   0  0  0  0  0  0  0  0  0 17
   -3.0100    5.7530    1.7980 H   0  0  0  0  0  0  0  0  0 18
   -3.2240    4.8020    3.1150 H   0  0  0  0  0  0  0  0  0 19
   -2.2460    9.9680    6.9990 H   0  0  0  0  0  0  0  0  0 20
   -2.0320   10.9170    5.6810 H   0  0  0  0  0  0  0  0  0 21
   -2.7610   15.0300    8.5210 H   0  0  0  0  0  0  0  0  0 22
   -2.9750   14.0770    9.8450 H   0  0  0  0  0  0  0  0  0 23
   -4.1300   15.1420    9.4020 H   0  0  0  0  0  0  0  0  0 24
   -0.4170    2.8070    0.0070 H   0  0  0  0  0  0  0  0  0 25
   -0.6490    1.7780    1.4300 H   0  0  0  0  0  0  0  0  0 26
   -2.9290    2.7250    1.7470 H   0  0  0  0  0  0  0  0  0 27
   -2.6970    3.7570    0.3200 H   0  0  0  0  0  0  0  0  0 28
   -0.7760    4.8700    1.4400 H   0  0  0  0  0  0  0  0  0 29
   -1.0080    3.8410    2.8650 H   0  0  0  0  0  0  0  0  0 30
   -1.1490    6.8900    2.8390 H   0  0  0  0  0  0  0  0  0 31
   -1.3810    5.8610    4.2640 H   0  0  0  0  0  0  0  0  0 32
   -3.6820    6.7580    4.5380 H   0  0  0  0  0  0  0  0  0 33
   -3.4500    7.7870    3.1110 H   0  0  0  0  0  0  0  0  0 34
   -1.5750    8.9600    4.2610 H   0  0  0  0  0  0  0  0  0 35
   -1.8070    7.9310    5.6880 H   0  0  0  0  0  0  0  0  0 36
   -4.1070    8.8290    5.9600 H   0  0  0  0  0  0  0  0  0 37
   -3.8760    9.8560    4.5350 H   0  0  0  0  0  0  0  0  0 38
   -4.4800   10.8510    7.3570 H   0  0  0  0  0  0  0  0  0 39
   -4.2490   11.8780    5.9310 H   0  0  0  0  0  0  0  0  0 40
   -2.3270   12.9970    7.0450 H   0  0  0  0  0  0  0  0  0 41
   -2.5590   11.9670    8.4740 H   0  0  0  0  0  0  0  0  0 42
   -4.8380   12.9170    8.7870 H   0  0  0  0  0  0  0  0  0 43
   -4.6080   13.9440    7.3610 H   0  0  0  0  0  0  0  0  0 44
  1  2  1  0  0  0
  1  4  1  0  0  0
  1 25  1  0  0  0
  1 26  1  0  0  0
  2  3  1  0  0  0
  2 27  1  0  0  0
  2 28  1  0  0  0
  3 12  1  0  0  0
  3 29  1  0  0  0
  3 30  1  0  0  0
  4 15  1  0  0  0
  4 16  1  0  0  0
  4 17  1  0  0  0
  5  6  1  0  0  0
  5 12  1  0  0  0
  5 31  1  0  0  0
  5 32  1  0  0  0
  6  7  1  0  0  0
  6 33  1  0  0  0
  6 34  1  0  0  0
  7  8  1  0  0  0
  7 35  1  0  0  0
  7 36  1  0  0  0
  8 13  1  0  0  0
  8 37  1  0  0  0
  8 38  1  0  0  0
  9 10  1  0  0  0
  9 13  1  0  0  0
  9 39  1  0  0  0
  9 40  1  0  0  0
 10 11  1  0  0  0
 10 41  1  0  0  0
 10 42  1  0  0  0
 11 14  1  0  0  0
 11 43  1  0  0  0
 11 44  1  0  0  0
 12 18  1  0  0  0
 12 19  1  0  0  0
 13 20  1  0  0  0
 13 21  1  0  0  0
 14 22  1  0  0  0
 14 23  1  0  0  0
 14 24  1  0  0  0
M  CHG  4   4   1  12   1  13   1  14   1
M  END
