@<TRIPOS>MOLECULE
MOL
   28    30     1     0     0
SMALL
resp


@<TRIPOS>ATOM
      1 C1         -3.5950   -0.5140    0.0000 ca        1 MOL      0.362625
      2 C2         -2.3860   -1.1980    0.0010 ca        1 MOL     -0.296168
      3 C3         -1.2040   -0.4530    0.0000 ca        1 MOL      0.065974
      4 C4         -1.2090    0.9730   -0.0000 ca        1 MOL      0.075142
      5 C5         -2.4720    1.6330   -0.0000 ca        1 MOL     -0.201576
      6 C6         -3.6400    0.9110   -0.0010 ca        1 MOL     -0.176306
      7 C7         -0.0000    1.6710    0.0000 ca        1 MOL     -0.030776
      8 C8          1.2090    0.9750    0.0000 ca        1 MOL      0.075142
      9 C9          1.2030   -0.4500    0.0000 ca        1 MOL      0.065974
     10 C10         2.3870   -1.1950   -0.0000 ca        1 MOL     -0.296168
     11 C11         3.5930   -0.5140    0.0000 ca        1 MOL      0.362625
     12 C12         3.6410    0.9050   -0.0010 ca        1 MOL     -0.176306
     13 C13         2.4760    1.6320    0.0010 ca        1 MOL     -0.201576
     14 N1         -0.0010   -1.1100    0.0000 na        1 MOL     -0.203273
     15 N2         -4.7780   -1.2060   -0.0000 nh        1 MOL     -0.880649
     16 N3          4.7690   -1.2040   -0.0010 nh        1 MOL     -0.880649
     17 H1          2.3640   -2.2520   -0.0000 ha        1 MOL      0.183153
     18 H2         -2.3440   -2.2550    0.0010 ha        1 MOL      0.183153
     19 H3         -2.4930    2.6940    0.0000 ha        1 MOL      0.194584
     20 H4         -4.5750    1.4120   -0.0000 ha        1 MOL      0.178469
     21 H5          0.0030    2.7300    0.0000 ha        1 MOL      0.172379
     22 H6          4.5830    1.3880   -0.0000 ha        1 MOL      0.178469
     23 H7          2.5070    2.6910    0.0000 ha        1 MOL      0.194584
     24 H8          4.7750   -2.2340    0.0000 hn        1 MOL      0.429720
     25 H9          5.6700   -0.7040    0.0000 hn        1 MOL      0.429720
     26 H10        -5.6780   -0.7050   -0.0000 hn        1 MOL      0.429720
     27 H11        -4.7840   -2.2360    0.0010 hn        1 MOL      0.429720
     28 H12         0.0250   -2.1420    0.0000 hn        1 MOL      0.332292
@<TRIPOS>BOND
     1    1    2 ar  
     2    1    6 ar  
     3    1   15 1   
     4    2    3 ar  
     5    2   18 1   
     6    3    4 ar  
     7    3   14 1   
     8    4    5 ar  
     9    4    7 ar  
    10    5    6 ar  
    11    5   19 1   
    12    6   20 1   
    13    7    8 ar  
    14    7   21 1   
    15    8    9 ar  
    16    8   13 ar  
    17    9   10 ar  
    18    9   14 2   
    19   10   11 ar  
    20   10   17 1   
    21   11   12 ar  
    22   11   16 1   
    23   12   13 ar  
    24   12   22 1   
    25   13   23 1   
    26   14   28 1   
    27   15   26 1   
    28   15   27 1   
    29   16   24 1   
    30   16   25 1   
@<TRIPOS>SUBSTRUCTURE
     1 MOL         1 TEMP              0 ****  ****    0 ROOT
