guest-1
  -ISIS-            3D

 23 22  0  0  0  0  0  0  0  0999 V2000
   20.1510   20.0230   24.3330 N   0  3  0  0  0
   19.2060   19.6100   24.4040 H   0  0  0  0  0
   20.2830   20.6200   25.1660 H   0  0  0  0  0
   20.8300   19.2490   24.4040 H   0  0  0  0  0
   20.3250   20.8070   23.0520 C   0  0  0  0  0
   21.3300   21.2380   23.0680 H   0  0  0  0  0
   19.5980   21.6230   23.0680 H   0  0  0  0  0
   20.1370   19.9620   21.7790 C   0  0  0  0  0
   20.8590   19.1410   21.7740 H   0  0  0  0  0
   19.1350   19.5240   21.7740 H   0  0  0  0  0
   20.3300   20.8260   20.5150 C   0  0  0  0  0
   21.3300   21.2650   20.5240 H   0  0  0  0  0
   19.6090   21.6480   20.5240 H   0  0  0  0  0
   20.1430   19.9900   19.2310 C   0  0  0  0  0
   20.8640   19.1690   19.2220 H   0  0  0  0  0
   19.1420   19.5530   19.2220 H   0  0  0  0  0
   20.3360   20.8560   17.9670 C   0  0  0  0  0
   21.3370   21.2940   17.9700 H   0  0  0  0  0
   19.6150   21.6780   17.9700 H   0  0  0  0  0
   20.1510   20.0230   16.6850 C   0  0  0  0  0
   20.8780   19.2100   16.6460 H   0  0  0  0  0
   20.2910   20.6520   15.8030 H   0  0  0  0  0
   19.1470   19.5960   16.6460 H   0  0  0  0  0
  1  2  1  0  0  0
  1  3  1  0  0  0
  1  4  1  0  0  0
  1  5  1  0  0  0
  5  6  1  0  0  0
  5  7  1  0  0  0
  5  8  1  0  0  0
  8  9  1  0  0  0
  8 10  1  0  0  0
  8 11  1  0  0  0
 11 12  1  0  0  0
 11 13  1  0  0  0
 11 14  1  0  0  0
 14 15  1  0  0  0
 14 16  1  0  0  0
 14 17  1  0  0  0
 17 18  1  0  0  0
 17 19  1  0  0  0
 17 20  1  0  0  0
 20 21  1  0  0  0
 20 22  1  0  0  0
 20 23  1  0  0  0
M  END

$$$$
guest-2
  -ISIS-            3D

 29 28  0  0  0  0  0  0  0  0999 V2000
   20.1510   20.0230   16.6850 C   0  0  0  0  0
   19.0990   19.7310   16.6470 H   0  0  0  0  0
   20.3710   20.6250   15.8010 H   0  0  0  0  0
   20.7640   19.1190   16.6470 H   0  0  0  0  0
   20.4450   20.8270   17.9650 C   0  0  0  0  0
   19.8400   21.7360   17.9650 H   0  0  0  0  0
   21.4960   21.1290   17.9650 H   0  0  0  0  0
   20.1410   19.9990   19.2310 C   0  0  0  0  0
   19.0910   19.6960   19.2250 H   0  0  0  0  0
   20.7470   19.0880   19.2250 H   0  0  0  0  0
   20.4380   20.8050   20.5120 C   0  0  0  0  0
   19.8330   21.7150   20.5170 H   0  0  0  0  0
   21.4880   21.1060   20.5170 H   0  0  0  0  0
   20.1340   19.9770   21.7780 C   0  0  0  0  0
   19.0830   19.6740   21.7720 H   0  0  0  0  0
   20.7380   19.0660   21.7720 H   0  0  0  0  0
   20.4300   20.7830   23.0600 C   0  0  0  0  0
   19.8240   21.6940   23.0650 H   0  0  0  0  0
   21.4800   21.0860   23.0650 H   0  0  0  0  0
   20.1260   19.9550   24.3260 C   0  0  0  0  0
   19.0750   19.6550   24.3230 H   0  0  0  0  0
   20.7320   19.0460   24.3230 H   0  0  0  0  0
   20.4260   20.7730   25.5970 C   0  0  0  0  0
   19.8130   21.6790   25.6090 H   0  0  0  0  0
   21.4790   21.0670   25.6090 H   0  0  0  0  0
   20.1510   20.0230   26.8810 N   0  3  0  0  0
   19.1610   19.7390   26.9550 H   0  0  0  0  0
   20.3620   20.6000   27.7120 H   0  0  0  0  0
   20.7210   19.1660   26.9550 H   0  0  0  0  0
  1  2  1  0  0  0
  1  3  1  0  0  0
  1  4  1  0  0  0
  1  5  1  0  0  0
  5  6  1  0  0  0
  5  7  1  0  0  0
  5  8  1  0  0  0
  8  9  1  0  0  0
  8 10  1  0  0  0
  8 11  1  0  0  0
 11 12  1  0  0  0
 11 13  1  0  0  0
 11 14  1  0  0  0
 14 15  1  0  0  0
 14 16  1  0  0  0
 14 17  1  0  0  0
 17 18  1  0  0  0
 17 19  1  0  0  0
 17 20  1  0  0  0
 20 21  1  0  0  0
 20 22  1  0  0  0
 20 23  1  0  0  0
 23 24  1  0  0  0
 23 25  1  0  0  0
 23 26  1  0  0  0
 26 27  1  0  0  0
 26 28  1  0  0  0
 26 29  1  0  0  0
M  END

$$$$
guest-3
  -ISIS-            3D

 16 16  0  0  0  0  0  0  0  0999 V2000
   20.2420   19.8750   18.2680 C   0  0  0  0  0
   19.4100   20.1740   17.6260 H   0  0  0  0  0
   21.1730   19.9630   17.7040 H   0  0  0  0  0
   20.0850   18.4410   18.7870 C   0  0  0  0  0
   19.0420   18.2600   19.0520 H   0  0  0  0  0
   20.3950   17.7000   18.0470 H   0  0  0  0  0
   20.9560   18.3950   20.0510 C   0  0  0  0  0
   21.9730   18.0980   19.7830 H   0  0  0  0  0
   20.5700   17.6710   20.7750 H   0  0  0  0  0
   20.9850   19.8340   20.6080 C   0  0  0  0  0
   22.0230   20.1400   20.7740 H   0  0  0  0  0
   20.3270   20.7330   19.5410 C   0  0  0  0  0
   19.3180   21.0190   19.8490 H   0  0  0  0  0
   20.9080   21.6390   19.3670 H   0  0  0  0  0
   20.2550   19.9030   21.8390 O   0  0  0  0  0
   20.3840   20.8280   22.1960 H   0  0  0  0  0
  1  2  1  0  0  0
  1  3  1  0  0  0
  1  4  1  0  0  0
  1 12  1  0  0  0
  4  5  1  0  0  0
  4  6  1  0  0  0
  4  7  1  0  0  0
  7  8  1  0  0  0
  7  9  1  0  0  0
  7 10  1  0  0  0
 10 11  1  0  0  0
 10 12  1  0  0  0
 10 15  1  0  0  0
 12 13  1  0  0  0
 12 14  1  0  0  0
 15 16  1  0  0  0
M  END

$$$$
guest-4
  -ISIS-            3D

 22 22  0  0  0  0  0  0  0  0999 V2000
   20.4840   20.4530   16.9200 C   0  0  0  0  0
   19.4730   20.3240   16.5280 H   0  0  0  0  0
   20.7230   21.5170   16.8900 H   0  0  0  0  0
   21.2680   19.8870   16.4110 H   0  0  0  0  0
   20.4680   19.8890   18.3720 C   0  0  0  0  0
   20.4870   18.8230   18.1330 H   0  0  0  0  0
   19.1890   20.2610   19.0840 C   0  0  0  0  0
   19.0940   21.3400   18.9420 H   0  0  0  0  0
   18.3170   19.8310   18.5880 H   0  0  0  0  0
   19.1920   19.8990   20.5870 C   0  0  0  0  0
   19.2460   18.8110   20.6550 H   0  0  0  0  0
   18.3150   20.3680   21.0380 H   0  0  0  0  0
   20.5160   20.3720   21.2690 C   0  0  0  0  0
   20.4500   21.4620   21.3120 H   0  0  0  0  0
   21.6890   19.8530   20.5840 C   0  0  0  0  0
   21.7390   18.7730   20.7310 H   0  0  0  0  0
   22.6450   20.2120   20.9680 H   0  0  0  0  0
   21.7820   20.2230   19.0960 C   0  0  0  0  0
   22.6060   19.7270   18.5780 H   0  0  0  0  0
   21.9970   21.2940   19.0650 H   0  0  0  0  0
   20.4620   19.8730   22.5400 O   0  0  0  0  0
   19.4990   19.9090   22.6810 H   0  0  0  0  0
  1  2  1  0  0  0
  1  3  1  0  0  0
  1  4  1  0  0  0
  1  5  1  0  0  0
  5  6  1  0  0  0
  5  7  1  0  0  0
  5 18  1  0  0  0
  7  8  1  0  0  0
  7  9  1  0  0  0
  7 10  1  0  0  0
 10 11  1  0  0  0
 10 12  1  0  0  0
 10 13  1  0  0  0
 13 14  1  0  0  0
 13 15  1  0  0  0
 13 21  1  0  0  0
 15 16  1  0  0  0
 15 17  1  0  0  0
 15 18  1  0  0  0
 18 19  1  0  0  0
 18 20  1  0  0  0
 21 22  1  0  0  0
M  END

$$$$
guest-5
  -ISIS-            3D

 22 22  0  0  0  0  0  0  0  0999 V2000
   20.2030   19.8440   18.3890 C   0  0  0  0  0
   20.5240   19.1630   17.5970 H   0  0  0  0  0
   19.3390   20.3860   17.9980 H   0  0  0  0  0
   21.3490   20.8490   18.6490 C   0  0  0  0  0
   22.3110   20.3400   18.5520 H   0  0  0  0  0
   21.3210   21.5990   17.8540 H   0  0  0  0  0
   21.2770   21.5690   20.0140 C   0  0  0  0  0
   20.2430   21.7860   20.2910 H   0  0  0  0  0
   21.7780   22.5350   19.9060 H   0  0  0  0  0
   22.0110   20.7900   21.1300 C   0  0  0  0  0
   23.0140   20.5310   20.7820 H   0  0  0  0  0
   22.1570   21.4600   21.9820 H   0  0  0  0  0
   21.3140   19.5020   21.6320 C   0  0  0  0  0
   22.0460   18.9760   22.2560 H   0  0  0  0  0
   20.8770   18.5090   20.5230 C   0  0  0  0  0
   21.7420   18.2180   19.9200 H   0  0  0  0  0
   20.5330   17.5980   21.0170 H   0  0  0  0  0
   19.7350   19.0150   19.6060 C   0  0  0  0  0
   19.1930   18.1460   19.2220 H   0  0  0  0  0
   19.0070   19.5880   20.1810 H   0  0  0  0  0
   20.2030   19.8430   22.4800 O   0  0  0  0  0
   19.5730   20.4050   21.9500 H   0  0  0  0  0
  1  2  1  0  0  0
  1  3  1  0  0  0
  1  4  1  0  0  0
  1 18  1  0  0  0
  4  5  1  0  0  0
  4  6  1  0  0  0
  4  7  1  0  0  0
  7  8  1  0  0  0
  7  9  1  0  0  0
  7 10  1  0  0  0
 10 11  1  0  0  0
 10 12  1  0  0  0
 10 13  1  0  0  0
 13 14  1  0  0  0
 13 15  1  0  0  0
 13 21  1  0  0  0
 15 16  1  0  0  0
 15 17  1  0  0  0
 15 18  1  0  0  0
 18 19  1  0  0  0
 18 20  1  0  0  0
 21 22  1  0  0  0
M  END

$$$$
guest-6
  -ISIS-            3D

 16 15  0  0  0  0  0  0  0  0999 V2000
   20.1100   20.2650   22.3490 C   0  0  0  0  0
   20.4460   21.4380   22.3690 O   0  5  0  0  0
   19.9390   19.6570   23.3930 O   0  0  0  0  0
   19.8930   19.5240   21.0300 C   0  0  0  0  0
   18.8680   19.1410   20.9990 H   0  0  0  0  0
   20.5590   18.6560   20.9930 H   0  0  0  0  0
   20.1380   20.3970   19.7790 C   0  0  0  0  0
   19.4660   21.2580   19.7930 H   0  0  0  0  0
   21.1660   20.7710   19.7870 H   0  0  0  0  0
   19.9040   19.5930   18.4820 C   0  0  0  0  0
   18.8780   19.2160   18.4630 H   0  0  0  0  0
   20.5740   18.7300   18.4570 H   0  0  0  0  0
   20.1470   20.4580   17.2320 C   0  0  0  0  0
   19.4700   21.3160   17.2190 H   0  0  0  0  0
   19.9760   19.8720   16.3270 H   0  0  0  0  0
   21.1750   20.8280   17.2130 H   0  0  0  0  0
  1  2  1  0  0  0
  1  3  2  0  0  0
  1  4  1  0  0  0
  4  5  1  0  0  0
  4  6  1  0  0  0
  4  7  1  0  0  0
  7  8  1  0  0  0
  7  9  1  0  0  0
  7 10  1  0  0  0
 10 11  1  0  0  0
 10 12  1  0  0  0
 10 13  1  0  0  0
 13 14  1  0  0  0
 13 15  1  0  0  0
 13 16  1  0  0  0
M  END

$$$$
guest-7
  -ISIS-            3D

 22 21  0  0  0  0  0  0  0  0999 V2000
   20.1510   20.0230   24.3570 C   0  0  0  0  0
   19.6750   21.1470   24.3410 O   0  5  0  0  0
   20.3820   19.4760   25.4230 O   0  0  0  0  0
   20.4680   19.2710   23.0610 C   0  0  0  0  0
   19.9140   18.3270   23.0450 H   0  0  0  0  0
   21.5340   19.0120   23.0450 H   0  0  0  0  0
   20.1330   20.0660   21.7780 C   0  0  0  0  0
   19.0680   20.3150   21.7680 H   0  0  0  0  0
   20.6960   21.0030   21.7680 H   0  0  0  0  0
   20.4760   19.2540   20.5120 C   0  0  0  0  0
   19.9150   18.3160   20.5170 H   0  0  0  0  0
   21.5400   19.0030   20.5170 H   0  0  0  0  0
   20.1410   20.0470   19.2310 C   0  0  0  0  0
   19.0770   20.2970   19.2250 H   0  0  0  0  0
   20.7020   20.9850   19.2250 H   0  0  0  0  0
   20.4840   19.2340   17.9650 C   0  0  0  0  0
   19.9240   18.2950   17.9650 H   0  0  0  0  0
   21.5480   18.9830   17.9650 H   0  0  0  0  0
   20.1510   20.0230   16.6850 C   0  0  0  0  0
   19.0860   20.2640   16.6460 H   0  0  0  0  0
   20.4010   19.4320   15.8010 H   0  0  0  0  0
   20.7200   20.9540   16.6460 H   0  0  0  0  0
  1  2  1  0  0  0
  1  3  2  0  0  0
  1  4  1  0  0  0
  4  5  1  0  0  0
  4  6  1  0  0  0
  4  7  1  0  0  0
  7  8  1  0  0  0
  7  9  1  0  0  0
  7 10  1  0  0  0
 10 11  1  0  0  0
 10 12  1  0  0  0
 10 13  1  0  0  0
 13 14  1  0  0  0
 13 15  1  0  0  0
 13 16  1  0  0  0
 16 17  1  0  0  0
 16 18  1  0  0  0
 16 19  1  0  0  0
 19 20  1  0  0  0
 19 21  1  0  0  0
 19 22  1  0  0  0
M  END

$$$$
guest-8
  -ISIS-            3D

 14 14  0  0  0  0  0  0  0  0999 V2000
   20.1700   19.9960   17.9120 C   0  0  0  0  0
   20.1700   19.9960   16.8220 H   0  0  0  0  0
   19.2640   19.2040   18.6100 C   0  0  0  0  0
   18.5530   18.5820   18.0660 H   0  0  0  0  0
   19.2630   19.2030   20.0040 C   0  0  0  0  0
   18.5470   18.5770   20.5330 H   0  0  0  0  0
   20.1700   19.9960   20.7220 C   0  0  0  0  0
   21.0780   20.7900   20.0040 C   0  0  0  0  0
   21.7940   21.4160   20.5330 H   0  0  0  0  0
   21.0770   20.7890   18.6100 C   0  0  0  0  0
   21.7880   21.4100   18.0660 H   0  0  0  0  0
   20.1700   19.9960   22.2390 C   0  0  0  0  0
   20.9650   20.6910   22.8510 O   0  5  0  0  0
   19.3760   19.3020   22.8510 O   0  0  0  0  0
  1  2  1  0  0  0
  1  3  1  0  0  0
  1 10  2  0  0  0
  3  4  1  0  0  0
  3  5  2  0  0  0
  5  6  1  0  0  0
  5  7  1  0  0  0
  7  8  2  0  0  0
  7 12  1  0  0  0
  8  9  1  0  0  0
  8 10  1  0  0  0
 10 11  1  0  0  0
 12 13  1  0  0  0
 12 14  2  0  0  0
M  END

$$$$
guest-9
  -ISIS-            3D

 17 17  0  0  0  0  0  0  0  0999 V2000
   18.8440   20.5110   22.7780 C   0  0  0  0  0
   18.7090   21.7040   22.9990 O   0  5  0  0  0
   17.9400   19.7230   22.9990 O   0  0  0  0  0
   20.1700   19.9960   22.2290 C   0  0  0  0  0
   20.3640   18.9830   22.5980 H   0  0  0  0  0
   20.9960   20.6140   22.5970 H   0  0  0  0  0
   20.1700   19.9980   20.7090 C   0  0  0  0  0
   19.7340   18.8720   20.0040 C   0  0  0  0  0
   19.3900   17.9920   20.5450 H   0  0  0  0  0
   19.7340   18.8730   18.6090 C   0  0  0  0  0
   19.3920   17.9920   18.0650 H   0  0  0  0  0
   20.1700   19.9960   17.9120 C   0  0  0  0  0
   20.1700   19.9960   16.8220 H   0  0  0  0  0
   20.6060   21.1200   18.6090 C   0  0  0  0  0
   20.9470   22.0000   18.0650 H   0  0  0  0  0
   20.6060   21.1200   20.0040 C   0  0  0  0  0
   20.9470   22.0020   20.5440 H   0  0  0  0  0
  1  2  1  0  0  0
  1  3  2  0  0  0
  1  4  1  0  0  0
  4  5  1  0  0  0
  4  6  1  0  0  0
  4  7  1  0  0  0
  7  8  1  0  0  0
  7 16  2  0  0  0
  8  9  1  0  0  0
  8 10  2  0  0  0
 10 11  1  0  0  0
 10 12  1  0  0  0
 12 13  1  0  0  0
 12 14  2  0  0  0
 14 15  1  0  0  0
 14 16  1  0  0  0
 16 17  1  0  0  0
M  END

$$$$
guest-10
  -ISIS-            3D

 20 20  0  0  0  0  0  0  0  0999 V2000
   19.1330   19.6100   23.3950 C   0  0  0  0  0
   18.1010   20.2140   23.6390 O   0  5  0  0  0
   19.2170   18.4080   23.5890 O   0  0  0  0  0
   20.3420   20.3710   22.8570 C   0  0  0  0  0
   21.2690   19.9050   23.2090 H   0  0  0  0  0
   20.3490   21.3930   23.2500 H   0  0  0  0  0
   20.3310   20.4070   21.3370 C   0  0  0  0  0
   20.9630   19.4000   20.6030 C   0  0  0  0  0
   21.4610   18.5820   21.1200 H   0  0  0  0  0
   20.9580   19.4370   19.2070 C   0  0  0  0  0
   21.4480   18.6460   18.6440 H   0  0  0  0  0
   20.3240   20.4800   18.5320 C   0  0  0  0  0
   19.6920   21.4850   19.2640 C   0  0  0  0  0
   19.1920   22.3010   18.7450 H   0  0  0  0  0
   19.6970   21.4510   20.6590 C   0  0  0  0  0
   19.2000   22.2410   21.2220 H   0  0  0  0  0
   20.3140   20.5160   17.0170 C   0  0  0  0  0
   20.2820   21.5450   16.6520 H   0  0  0  0  0
   21.2110   20.0430   16.6110 H   0  0  0  0  0
   19.4400   19.9870   16.6330 H   0  0  0  0  0
  1  2  1  0  0  0
  1  3  2  0  0  0
  1  4  1  0  0  0
  4  5  1  0  0  0
  4  6  1  0  0  0
  4  7  1  0  0  0
  7  8  1  0  0  0
  7 15  2  0  0  0
  8  9  1  0  0  0
  8 10  2  0  0  0
 10 11  1  0  0  0
 10 12  1  0  0  0
 12 13  2  0  0  0
 12 17  1  0  0  0
 13 14  1  0  0  0
 13 15  1  0  0  0
 15 16  1  0  0  0
 17 18  1  0  0  0
 17 19  1  0  0  0
 17 20  1  0  0  0
M  END

$$$$
guest-11
  -ISIS-            3D

 21 21  0  0  0  0  0  0  0  0999 V2000
   21.0450   18.9160   22.9530 C   0  0  0  0  0
   20.5660   17.8190   23.1920 O   0  5  0  0  0
   22.2250   19.1450   23.1680 O   0  0  0  0  0
   20.1510   20.0230   22.3950 C   0  0  0  0  0
   20.4920   21.0010   22.7510 H   0  0  0  0  0
   19.1280   19.9080   22.7700 H   0  0  0  0  0
   20.1390   20.0100   20.8740 C   0  0  0  0  0
   19.1910   19.2520   20.1820 C   0  0  0  0  0
   18.4590   18.6640   20.7350 H   0  0  0  0  0
   19.1780   19.2410   18.7860 C   0  0  0  0  0
   18.4320   18.6440   18.2690 H   0  0  0  0  0
   20.1150   19.9920   18.0680 C   0  0  0  0  0
   20.1510   20.0230   16.6850 O   0  0  0  0  0
   19.2220   19.2800   15.8560 C   0  0  0  0  0
   19.4550   19.4680   14.8040 H   0  0  0  0  0
   18.1990   19.6090   16.0630 H   0  0  0  0  0
   19.3190   18.2100   16.0620 H   0  0  0  0  0
   21.0590   20.7480   18.7590 C   0  0  0  0  0
   21.7880   21.3330   18.2030 H   0  0  0  0  0
   21.0740   20.7590   20.1550 C   0  0  0  0  0
   21.8180   21.3540   20.6850 H   0  0  0  0  0
  1  2  1  0  0  0
  1  3  2  0  0  0
  1  4  1  0  0  0
  4  5  1  0  0  0
  4  6  1  0  0  0
  4  7  1  0  0  0
  7  8  1  0  0  0
  7 20  2  0  0  0
  8  9  1  0  0  0
  8 10  2  0  0  0
 10 11  1  0  0  0
 10 12  1  0  0  0
 12 13  1  0  0  0
 12 18  2  0  0  0
 13 14  1  0  0  0
 14 15  1  0  0  0
 14 16  1  0  0  0
 14 17  1  0  0  0
 18 19  1  0  0  0
 18 20  1  0  0  0
 20 21  1  0  0  0
M  END

$$$$
guest-12
  -ISIS-            3D

 23 23  0  0  0  0  0  0  0  0999 V2000
   19.9320   21.6760   24.6740 C   0  0  0  0  0
   19.9280   22.9000   24.6770 O   0  5  0  0  0
   20.8540   21.0750   25.2070 O   0  0  0  0  0
   18.7660   20.8960   24.0210 C   0  0  0  0  0
   17.7990   21.3010   24.3570 H   0  0  0  0  0
   18.7610   19.8410   24.3360 H   0  0  0  0  0
   18.8190   20.9620   22.4790 C   0  0  0  0  0
   17.9220   20.4820   22.0740 H   0  0  0  0  0
   18.8020   22.0030   22.1470 H   0  0  0  0  0
   20.0650   20.2510   21.9070 C   0  0  0  0  0
   20.0980   19.2210   22.2720 H   0  0  0  0  0
   20.9720   20.7430   22.2680 H   0  0  0  0  0
   20.0670   20.2490   20.3860 C   0  0  0  0  0
   19.4860   19.1930   19.6820 C   0  0  0  0  0
   19.0280   18.3640   20.2210 H   0  0  0  0  0
   19.4860   19.1950   18.2880 C   0  0  0  0  0
   19.0310   18.3680   17.7430 H   0  0  0  0  0
   20.0650   20.2510   17.5890 C   0  0  0  0  0
   20.0640   20.2520   16.5000 H   0  0  0  0  0
   20.6450   21.3090   18.2880 C   0  0  0  0  0
   21.0990   22.1360   17.7440 H   0  0  0  0  0
   20.6480   21.3080   19.6820 C   0  0  0  0  0
   21.1010   22.1380   20.2220 H   0  0  0  0  0
  1  2  1  0  0  0
  1  3  2  0  0  0
  1  4  1  0  0  0
  4  5  1  0  0  0
  4  6  1  0  0  0
  4  7  1  0  0  0
  7  8  1  0  0  0
  7  9  1  0  0  0
  7 10  1  0  0  0
 10 11  1  0  0  0
 10 12  1  0  0  0
 10 13  1  0  0  0
 13 14  1  0  0  0
 13 22  2  0  0  0
 14 15  1  0  0  0
 14 16  2  0  0  0
 16 17  1  0  0  0
 16 18  1  0  0  0
 18 19  1  0  0  0
 18 20  2  0  0  0
 20 21  1  0  0  0
 20 22  1  0  0  0
 22 23  1  0  0  0
M  END

$$$$
guest-s13
  -ISIS-            3D

 26 25  0  0  0  0  0  0  0  0999 V2000
   20.7020   19.7860   16.6850 C   0  0  0  0  0
   20.2410   20.2220   15.7970 H   0  0  0  0  0
   21.7770   19.9800   16.6420 H   0  0  0  0  0
   20.5420   18.7060   16.6620 H   0  0  0  0  0
   20.0910   20.4000   17.9590 C   0  0  0  0  0
   19.0140   20.2160   17.9650 H   0  0  0  0  0
   20.2410   21.4810   17.9450 H   0  0  0  0  0
   20.7280   19.8020   19.2300 C   0  0  0  0  0
   20.5770   18.7190   19.2380 H   0  0  0  0  0
   21.8050   19.9850   19.2200 H   0  0  0  0  0
   20.1130   20.4160   20.5070 C   0  0  0  0  0
   19.0360   20.2290   20.5170 H   0  0  0  0  0
   20.2620   21.4980   20.4900 H   0  0  0  0  0
   20.7520   19.8150   21.7790 C   0  0  0  0  0
   20.6350   18.7290   21.7490 H   0  0  0  0  0
   21.8250   20.0260   21.7890 H   0  0  0  0  0
   20.1000   20.3540   23.0730 C   0  0  1  0  0
   20.2590   21.4360   23.1220 H   0  0  0  0  0
   18.5890   20.0770   23.0320 C   0  0  0  0  0
   18.3840   19.0040   22.9850 H   0  0  0  0  0
   18.1350   20.5510   22.1570 H   0  0  0  0  0
   18.0960   20.4830   23.9200 H   0  0  0  0  0
   20.7020   19.7860   24.3240 N   0  3  0  0  0
   21.7080   20.0050   24.3950 H   0  0  0  0  0
   20.2470   20.1700   25.1670 H   0  0  0  0  0
   20.6020   18.7600   24.3580 H   0  0  0  0  0
  1  2  1  0  0  0
  1  3  1  0  0  0
  1  4  1  0  0  0
  1  5  1  0  0  0
  5  6  1  0  0  0
  5  7  1  0  0  0
  5  8  1  0  0  0
  8  9  1  0  0  0
  8 10  1  0  0  0
  8 11  1  0  0  0
 11 12  1  0  0  0
 11 13  1  0  0  0
 11 14  1  0  0  0
 14 15  1  0  0  0
 14 16  1  0  0  0
 14 17  1  0  0  0
 17 18  1  0  0  0
 17 19  1  0  0  0
 17 23  1  0  0  0
 19 20  1  0  0  0
 19 21  1  0  0  0
 19 22  1  0  0  0
 23 24  1  0  0  0
 23 25  1  0  0  0
 23 26  1  0  0  0
M  END

$$$$
guest-s14
  -ISIS-            3D

 13 13  0  0  0  0  0  0  0  0999 V2000
   20.2030   19.8440   18.3890 C   0  0  0  0  0
   19.2940   20.2550   17.9350 H   0  0  0  0  0
   20.8830   19.5350   17.5880 H   0  0  0  0  0
   19.9570   18.8000   19.5220 C   0  0  0  0  0
   19.0780   18.1610   19.4040 H   0  0  0  0  0
   20.8190   18.1650   19.7590 H   0  0  0  0  0
   19.7760   20.0390   20.4470 C   0  0  0  0  0
   18.7740   20.4890   20.4040 H   0  0  0  0  0
   20.8280   20.7180   19.5200 C   0  0  0  0  0
   21.8720   20.4880   19.7550 H   0  0  0  0  0
   20.7300   21.8020   19.3990 H   0  0  0  0  0
   20.2030   19.8430   21.7860 O   0  0  0  0  0
   20.1280   20.7330   22.2380 H   0  0  0  0  0
  1  2  1  0  0  0
  1  3  1  0  0  0
  1  4  1  0  0  0
  1  9  1  0  0  0
  4  5  1  0  0  0
  4  6  1  0  0  0
  4  7  1  0  0  0
  7  8  1  0  0  0
  7  9  1  0  0  0
  7 12  1  0  0  0
  9 10  1  0  0  0
  9 11  1  0  0  0
 12 13  1  0  0  0
M  END

$$$$
guest-s15
  -ISIS-            3D

 22 22  0  0  0  0  0  0  0  0999 V2000
   18.7570   19.7520   21.4370 C   0  0  0  0  0
   17.8870   19.2650   20.9900 H   0  0  0  0  0
   19.2460   19.0320   22.0970 H   0  0  0  0  0
   18.4030   20.5900   22.0430 H   0  0  0  0  0
   19.7310   20.2420   20.3410 C   0  0  0  0  0
   20.2300   19.0370   19.5000 C   0  0  0  0  0
   19.3640   18.5430   19.0520 H   0  0  0  0  0
   20.7120   18.2950   20.1420 H   0  0  0  0  0
   21.2040   19.4480   18.3650 C   0  0  0  0  0
   22.2290   19.4540   18.7420 H   0  0  0  0  0
   21.1630   18.6860   17.5830 H   0  0  0  0  0
   20.8900   20.8340   17.7500 C   0  0  0  0  0
   21.1360   20.8260   16.6860 H   0  0  0  0  0
   21.5220   21.5930   18.2160 H   0  0  0  0  0
   19.4130   21.2280   17.9480 C   0  0  0  0  0
   19.2140   22.1880   17.4630 H   0  0  0  0  0
   18.7790   20.4860   17.4560 H   0  0  0  0  0
   19.0380   21.3170   19.4480 C   0  0  0  0  0
   19.2810   22.3170   19.8180 H   0  0  0  0  0
   17.9500   21.2250   19.5210 H   0  0  0  0  0
   20.8490   20.8340   21.0230 O   0  0  0  0  0
   21.4680   21.1700   20.3180 H   0  0  0  0  0
  1  2  1  0  0  0
  1  3  1  0  0  0
  1  4  1  0  0  0
  1  5  1  0  0  0
  5  6  1  0  0  0
  5 18  1  0  0  0
  5 21  1  0  0  0
  6  7  1  0  0  0
  6  8  1  0  0  0
  6  9  1  0  0  0
  9 10  1  0  0  0
  9 11  1  0  0  0
  9 12  1  0  0  0
 12 13  1  0  0  0
 12 14  1  0  0  0
 12 15  1  0  0  0
 15 16  1  0  0  0
 15 17  1  0  0  0
 15 18  1  0  0  0
 18 19  1  0  0  0
 18 20  1  0  0  0
 21 22  1  0  0  0
M  END

$$$$
guest-s16
  -ISIS-            3D

 22 22  0  0  0  0  0  0  0  0999 V2000
   20.0110   20.0570   17.3930 C   0  0  0  0  0
   18.9520   20.3060   17.2960 H   0  0  0  0  0
   20.5550   20.8290   16.8450 H   0  0  0  0  0
   20.2400   19.0890   16.9420 H   0  0  0  0  0
   20.4030   19.9760   18.9270 C   0  0  0  0  0
   21.4760   19.7740   18.9390 H   0  0  0  0  0
   20.2770   21.3530   19.5840 C   0  0  0  0  0
   20.9300   21.9890   18.9850 H   0  0  0  0  0
   19.2400   21.6940   19.5680 H   0  0  0  0  0
   20.7940   21.2370   21.1180 C   0  0  0  0  0
   20.5570   22.1770   21.6220 H   0  0  0  0  0
   21.8740   21.0710   21.1300 H   0  0  0  0  0
   20.0950   20.0750   21.8160 C   0  0  0  0  0
   20.4180   20.0620   22.8590 H   0  0  0  0  0
   20.2060   18.7220   21.0980 C   0  0  0  0  0
   19.6290   17.9290   21.5770 H   0  0  0  0  0
   21.2220   18.3740   20.8960 H   0  0  0  0  0
   19.6580   18.8380   19.7290 C   0  0  0  0  0
   18.5790   18.9390   19.5950 H   0  0  0  0  0
   19.8640   17.8920   19.2230 H   0  0  0  0  0
   18.7060   20.4390   22.0310 O   0  0  0  0  0
   18.3210   19.7000   22.5340 H   0  0  0  0  0
  1  2  1  0  0  0
  1  3  1  0  0  0
  1  4  1  0  0  0
  1  5  1  0  0  0
  5  6  1  0  0  0
  5  7  1  0  0  0
  5 18  1  0  0  0
  7  8  1  0  0  0
  7  9  1  0  0  0
  7 10  1  0  0  0
 10 11  1  0  0  0
 10 12  1  0  0  0
 10 13  1  0  0  0
 13 14  1  0  0  0
 13 15  1  0  0  0
 13 21  1  0  0  0
 15 16  1  0  0  0
 15 17  1  0  0  0
 15 18  1  0  0  0
 18 19  1  0  0  0
 18 20  1  0  0  0
 21 22  1  0  0  0
M  END

$$$$
guest-s17
  -ISIS-            3D

 25 25  0  0  0  0  0  0  0  0999 V2000
   20.2030   19.8430   18.3890 C   0  0  0  0  0
   19.4600   19.3900   19.0460 H   0  0  0  0  0
   19.8550   19.6290   17.3760 H   0  0  0  0  0
   21.5740   19.1460   18.5530 C   0  0  0  0  0
   21.4340   18.0910   18.3000 H   0  0  0  0  0
   22.2750   19.5480   17.8160 H   0  0  0  0  0
   22.2330   19.2100   19.9530 C   0  0  0  0  0
   22.7720   20.1490   20.0840 H   0  0  0  0  0
   23.0040   18.4360   19.9770 H   0  0  0  0  0
   21.2710   18.9600   21.1430 C   0  0  0  0  0
   20.3950   18.3890   20.8310 H   0  0  0  0  0
   21.8030   18.3230   21.8530 H   0  0  0  0  0
   20.8530   20.2470   21.9050 C   0  0  0  0  0
   21.7590   20.7990   22.1750 H   0  0  0  0  0
   19.8980   21.2050   21.1400 C   0  0  0  0  0
   18.9930   20.6850   20.8270 H   0  0  0  0  0
   19.5720   21.9730   21.8450 H   0  0  0  0  0
   20.5640   21.9430   19.9490 C   0  0  0  0  0
   21.6440   21.9940   20.0810 H   0  0  0  0  0
   20.2270   22.9820   19.9680 H   0  0  0  0  0
   20.2060   21.3830   18.5490 C   0  0  0  0  0
   20.8840   21.8200   17.8120 H   0  0  0  0  0
   19.2050   21.7370   18.2950 H   0  0  0  0  0
   20.2030   19.8430   23.1200 O   0  0  0  0  0
   20.0920   20.6580   23.6920 H   0  0  0  0  0
  1  2  1  0  0  0
  1  3  1  0  0  0
  1  4  1  0  0  0
  1 21  1  0  0  0
  4  5  1  0  0  0
  4  6  1  0  0  0
  4  7  1  0  0  0
  7  8  1  0  0  0
  7  9  1  0  0  0
  7 10  1  0  0  0
 10 11  1  0  0  0
 10 12  1  0  0  0
 10 13  1  0  0  0
 13 14  1  0  0  0
 13 15  1  0  0  0
 13 24  1  0  0  0
 15 16  1  0  0  0
 15 17  1  0  0  0
 15 18  1  0  0  0
 18 19  1  0  0  0
 18 20  1  0  0  0
 18 21  1  0  0  0
 21 22  1  0  0  0
 21 23  1  0  0  0
 24 25  1  0  0  0
M  END

$$$$
guest-s18
  -ISIS-            3D

 19 18  0  0  0  0  0  0  0  0999 V2000
   19.9350   20.6160   23.1030 C   0  0  0  0  0
   20.1510   20.0230   24.1470 O   0  5  0  0  0
   19.5190   21.7630   23.1300 O   0  0  0  0  0
   20.1990   19.8920   21.7780 C   0  0  0  0  0
   19.5950   18.9780   21.7400 H   0  0  0  0  0
   21.2480   19.5790   21.7400 H   0  0  0  0  0
   19.8880   20.7460   20.5270 C   0  0  0  0  0
   18.8380   21.0470   20.5390 H   0  0  0  0  0
   20.5000   21.6510   20.5390 H   0  0  0  0  0
   20.1750   19.9580   19.2300 C   0  0  0  0  0
   19.5670   19.0490   19.2120 H   0  0  0  0  0
   21.2240   19.6530   19.2120 H   0  0  0  0  0
   19.8660   20.8070   17.9790 C   0  0  0  0  0
   18.8170   21.1130   17.9910 H   0  0  0  0  0
   20.4740   21.7150   17.9910 H   0  0  0  0  0
   20.1510   20.0230   16.6850 C   0  0  0  0  0
   19.5340   19.1230   16.6350 H   0  0  0  0  0
   19.9270   20.6410   15.8130 H   0  0  0  0  0
   21.2020   19.7290   16.6350 H   0  0  0  0  0
  1  2  1  0  0  0
  1  3  2  0  0  0
  1  4  1  0  0  0
  4  5  1  0  0  0
  4  6  1  0  0  0
  4  7  1  0  0  0
  7  8  1  0  0  0
  7  9  1  0  0  0
  7 10  1  0  0  0
 10 11  1  0  0  0
 10 12  1  0  0  0
 10 13  1  0  0  0
 13 14  1  0  0  0
 13 15  1  0  0  0
 13 16  1  0  0  0
 16 17  1  0  0  0
 16 18  1  0  0  0
 16 19  1  0  0  0
M  END

$$$$
guest-s19
  -ISIS-            3D

 20 20  0  0  0  0  0  0  0  0999 V2000
   18.8760   20.1220   23.6050 C   0  0  0  0  0
   17.9440   20.8510   23.9060 O   0  5  0  0  0
   18.7980   18.9130   23.7520 O   0  0  0  0  0
   20.1620   20.7300   23.0580 C   0  0  0  0  0
   21.0250   20.1540   23.4060 H   0  0  0  0  0
   20.2960   21.7440   23.4500 H   0  0  0  0  0
   20.1520   20.7670   21.5370 C   0  0  0  0  0
   19.6570   21.8870   20.8620 C   0  0  0  0  0
   19.2740   22.7350   21.4270 H   0  0  0  0  0
   19.6520   21.9220   19.4690 C   0  0  0  0  0
   19.2660   22.7990   18.9480 H   0  0  0  0  0
   20.1410   20.8380   18.7440 C   0  0  0  0  0
   20.1380   20.8690   17.6570 H   0  0  0  0  0
   20.6340   19.7140   19.4080 C   0  0  0  0  0
   20.6400   19.6850   20.8030 C   0  0  0  0  0
   21.0280   18.8120   21.3220 H   0  0  0  0  0
   21.1710   18.5350   18.6190 C   0  0  0  0  0
   20.9690   17.5950   19.1400 H   0  0  0  0  0
   20.7050   18.4800   17.6330 H   0  0  0  0  0
   22.2500   18.6300   18.4850 H   0  0  0  0  0
  1  2  1  0  0  0
  1  3  2  0  0  0
  1  4  1  0  0  0
  4  5  1  0  0  0
  4  6  1  0  0  0
  4  7  1  0  0  0
  7  8  1  0  0  0
  7 15  2  0  0  0
  8  9  1  0  0  0
  8 10  2  0  0  0
 10 11  1  0  0  0
 10 12  1  0  0  0
 12 13  1  0  0  0
 12 14  2  0  0  0
 14 15  1  0  0  0
 14 17  1  0  0  0
 15 16  1  0  0  0
 17 18  1  0  0  0
 17 19  1  0  0  0
 17 20  1  0  0  0
M  END

$$$$
guest-s20
  -ISIS-            3D

 21 21  0  0  0  0  0  0  0  0999 V2000
   22.1850   18.4530   18.4620 C   0  0  0  0  0
   22.8130   17.9800   17.7010 H   0  0  0  0  0
   22.8080   19.0960   19.0910 H   0  0  0  0  0
   21.7160   17.6770   19.0730 H   0  0  0  0  0
   21.1640   19.2470   17.8090 O   0  0  0  0  0
   20.2110   19.9730   18.5010 C   0  0  0  0  0
   19.2810   20.6970   17.7560 C   0  0  0  0  0
   19.3300   20.6720   16.6680 H   0  0  0  0  0
   18.2960   21.4460   18.3920 C   0  0  0  0  0
   17.5710   22.0120   17.8030 H   0  0  0  0  0
   18.2390   21.4740   19.7850 C   0  0  0  0  0
   17.4670   22.0600   20.2810 H   0  0  0  0  0
   19.1620   20.7520   20.5450 C   0  0  0  0  0
   20.1480   20.0030   19.8980 C   0  0  0  0  0
   20.8640   19.4450   20.4950 H   0  0  0  0  0
   19.1000   20.7860   22.0630 C   0  0  0  0  0
   18.6630   21.7330   22.3960 H   0  0  0  0  0
   20.1160   20.7650   22.4720 H   0  0  0  0  0
   18.2940   19.6120   22.6130 C   0  0  0  0  0
   17.1090   19.7560   22.8660 O   0  5  0  0  0
   18.8470   18.5410   22.8120 O   0  0  0  0  0
  1  2  1  0  0  0
  1  3  1  0  0  0
  1  4  1  0  0  0
  1  5  1  0  0  0
  5  6  1  0  0  0
  6  7  1  0  0  0
  6 14  2  0  0  0
  7  8  1  0  0  0
  7  9  2  0  0  0
  9 10  1  0  0  0
  9 11  1  0  0  0
 11 12  1  0  0  0
 11 13  2  0  0  0
 13 14  1  0  0  0
 13 16  1  0  0  0
 14 15  1  0  0  0
 16 17  1  0  0  0
 16 18  1  0  0  0
 16 19  1  0  0  0
 19 20  1  0  0  0
 19 21  2  0  0  0
M  END

$$$$
guest-s21
  -ISIS-            3D

 23 23  0  0  0  0  0  0  0  0999 V2000
   21.3090   20.9780   22.4860 C   0  0  0  0  0
   21.3900   21.9800   22.0590 H   0  0  0  0  0
   21.2420   21.0810   23.5710 H   0  0  0  0  0
   22.2250   20.4300   22.2510 H   0  0  0  0  0
   20.0650   20.2510   21.9200 C   0  0  2  0  0
   19.1870   20.8130   22.2510 H   0  0  0  0  0
   19.9340   18.8130   22.4790 C   0  0  0  0  0
   19.1260   18.2980   21.9470 H   0  0  0  0  0
   20.8490   18.2470   22.2660 H   0  0  0  0  0
   19.6310   18.8030   23.9780 C   0  0  0  0  0
   18.5240   19.1320   24.3720 O   0  5  0  0  0
   20.4810   18.4230   24.7660 O   0  0  0  0  0
   20.0710   20.2480   20.3920 C   0  0  0  0  0
   19.0520   20.8950   19.6840 C   0  0  0  0  0
   18.2530   21.4020   20.2220 H   0  0  0  0  0
   19.0480   20.8960   18.2890 C   0  0  0  0  0
   18.2510   21.4020   17.7480 H   0  0  0  0  0
   20.0650   20.2510   17.5890 C   0  0  0  0  0
   20.0640   20.2520   16.4990 H   0  0  0  0  0
   21.0850   19.6050   18.2840 C   0  0  0  0  0
   21.8810   19.1000   17.7370 H   0  0  0  0  0
   21.0880   19.6050   19.6780 C   0  0  0  0  0
   21.8890   19.0970   20.2120 H   0  0  0  0  0
  1  2  1  0  0  0
  1  3  1  0  0  0
  1  4  1  0  0  0
  1  5  1  0  0  0
  5  6  1  0  0  0
  5  7  1  0  0  0
  5 13  1  0  0  0
  7  8  1  0  0  0
  7  9  1  0  0  0
  7 10  1  0  0  0
 10 11  1  0  0  0
 10 12  2  0  0  0
 13 14  1  0  0  0
 13 22  2  0  0  0
 14 15  1  0  0  0
 14 16  2  0  0  0
 16 17  1  0  0  0
 16 18  1  0  0  0
 18 19  1  0  0  0
 18 20  2  0  0  0
 20 21  1  0  0  0
 20 22  1  0  0  0
 22 23  1  0  0  0
M  END

$$$$
