
  -OEChem-08221715413D

 20 20  0     0  0  0  0  0  0999 V2000
   -0.7955    1.2297   -3.7854 C   0  0  0  0  0  0  0  0  0  0  0  0
    1.3091   -0.3847   -0.7486 C   0  0  0  0  0  0  0  0  0  0  0  0
    0.5096    0.2717    0.3768 C   0  0  0  0  0  0  0  0  0  0  0  0
    0.2838   -0.8860   -1.7613 C   0  0  0  0  0  0  0  0  0  0  0  0
   -0.9597    0.1420   -0.0138 C   0  0  0  0  0  0  0  0  0  0  0  0
   -0.9546   -0.0222   -1.5321 C   0  0  0  0  0  0  0  0  0  0  0  0
   -0.8697    1.3180   -2.2595 C   0  0  0  0  0  0  0  0  0  0  0  0
    0.2049    0.6341   -4.2709 O   0  5  0  0  0  0  0  0  0  0  0  0
   -1.7693    1.7767   -4.3800 O   0  0  0  0  0  0  0  0  0  0  0  0
    2.0136    0.3154   -1.2099 H   0  0  0  0  0  0  0  0  0  0  0  0
    1.8934   -1.2223   -0.3497 H   0  0  0  0  0  0  0  0  0  0  0  0
    0.7004   -0.2524    1.3210 H   0  0  0  0  0  0  0  0  0  0  0  0
    0.7925    1.3196    0.5218 H   0  0  0  0  0  0  0  0  0  0  0  0
    0.6733   -0.7466   -2.7812 H   0  0  0  0  0  0  0  0  0  0  0  0
    0.0732   -1.9566   -1.6356 H   0  0  0  0  0  0  0  0  0  0  0  0
   -1.4456   -0.7024    0.4948 H   0  0  0  0  0  0  0  0  0  0  0  0
   -1.5023    1.0547    0.2785 H   0  0  0  0  0  0  0  0  0  0  0  0
   -1.8449   -0.5532   -1.8532 H   0  0  0  0  0  0  0  0  0  0  0  0
    0.0170    1.8572   -1.9078 H   0  0  0  0  0  0  0  0  0  0  0  0
   -1.7461    1.9209   -1.9970 H   0  0  0  0  0  0  0  0  0  0  0  0
  1  7  1  0  0  0  0
  1  8  1  0  0  0  0
  1  9  2  0  0  0  0
  2  3  1  0  0  0  0
  2  4  1  0  0  0  0
  3  5  1  0  0  0  0
  4  6  1  0  0  0  0
  5  6  1  0  0  0  0
  6  7  1  0  0  0  0
  2 10  1  0  0  0  0
  2 11  1  0  0  0  0
  3 12  1  0  0  0  0
  3 13  1  0  0  0  0
  4 14  1  0  0  0  0
  4 15  1  0  0  0  0
  5 16  1  0  0  0  0
  5 17  1  0  0  0  0
  6 18  1  0  0  0  0
  7 19  1  0  0  0  0
  7 20  1  0  0  0  0
M  CHG  1   8  -1
M  END
> <Chemgauss4>
-7.956566

$$$$
