@<TRIPOS>MOLECULE
*****
   17    16     0     0     0
SMALL
USER_CHARGES

@<TRIPOS>ATOM
      1 C1         -0.2421   -0.0718    0.3818 C.2       1 OA-G3        -0.2570
      2 C2          0.8393   -0.2077   -0.3937 C.2       1 OA-G3        -0.1311
      3 C3         -1.3051    0.2551   -3.3541 C.2       1 OA-G3         0.9083
      4 C4          1.1850    0.7201   -1.5211 C.3       1 OA-G3        -0.0618
      5 C5         -0.1018   -0.6816   -3.2022 C.3       1 OA-G3        -0.1958
      6 C6          1.2330   -0.0262   -2.8578 C.3       1 OA-G3        -0.0471
      7 O1         -1.5879    0.9108   -2.3102 O.co2     1 OA-G3        -0.8540
      8 O2         -1.8592    0.2770   -4.4873 O.co2     1 OA-G3        -0.8540
      9 H1         -0.4542   -0.7664    1.1869 H         1 OA-G3         0.0987
     10 H2         -0.9353    0.7462    0.2188 H         1 OA-G3         0.0987
     11 H3          1.5207   -1.0316   -0.1977 H         1 OA-G3         0.1098
     12 H4          2.1638    1.1681   -1.3121 H         1 OA-G3         0.0458
     13 H5          0.4650    1.5450   -1.5737 H         1 OA-G3         0.0458
     14 H6         -0.3602   -1.3853   -2.4008 H         1 OA-G3         0.0211
     15 H7          0.0074   -1.2732   -4.1197 H         1 OA-G3         0.0211
     16 H8          1.4879    0.6810   -3.6576 H         1 OA-G3         0.0257
     17 H9          2.0316   -0.7782   -2.8399 H         1 OA-G3         0.0257
@<TRIPOS>BOND
     1    1    2 2
     2    2    4 1
     3    3    5 1
     4    3    7 1
     5    3    8 2
     6    4    6 1
     7    5    6 1
     8    1    9 1
     9    1   10 1
    10    2   11 1
    11    4   12 1
    12    4   13 1
    13    5   14 1
    14    5   15 1
    15    6   16 1
    16    6   17 1
