
  -OEChem-08221715423D

 19 18  0     0  0  0  0  0  0999 V2000
   -1.3428    0.3977   -4.1555 C   0  0  0  0  0  0  0  0  0  0  0  0
    1.3494    0.8562   -1.6206 C   0  0  0  0  0  0  0  0  0  0  0  0
   -0.1465    0.0031    0.1950 C   0  0  0  0  0  0  0  0  0  0  0  0
   -0.4127   -0.7040   -3.6398 C   0  0  0  0  0  0  0  0  0  0  0  0
   -0.4163   -0.9172   -2.1271 C   0  0  0  0  0  0  0  0  0  0  0  0
   -0.0498    0.3297   -1.2978 C   0  0  0  0  0  0  0  0  0  0  0  0
   -1.4251    0.5122   -5.4098 O   0  5  0  0  0  0  0  0  0  0  0  0
   -1.9062    1.0746   -3.2485 O   0  0  0  0  0  0  0  0  0  0  0  0
    2.1072    0.0897   -1.4250 H   0  0  0  0  0  0  0  0  0  0  0  0
    1.6012    1.7234   -1.0027 H   0  0  0  0  0  0  0  0  0  0  0  0
    1.4304    1.1499   -2.6726 H   0  0  0  0  0  0  0  0  0  0  0  0
    0.5555   -0.7928    0.4655 H   0  0  0  0  0  0  0  0  0  0  0  0
   -1.1538   -0.3402    0.4542 H   0  0  0  0  0  0  0  0  0  0  0  0
    0.0812    0.8805    0.8099 H   0  0  0  0  0  0  0  0  0  0  0  0
    0.6080   -0.5200   -3.9934 H   0  0  0  0  0  0  0  0  0  0  0  0
   -0.7392   -1.6346   -4.1217 H   0  0  0  0  0  0  0  0  0  0  0  0
    0.2862   -1.7273   -1.8917 H   0  0  0  0  0  0  0  0  0  0  0  0
   -1.4072   -1.2739   -1.8180 H   0  0  0  0  0  0  0  0  0  0  0  0
   -0.7712    1.1284   -1.5083 H   0  0  0  0  0  0  0  0  0  0  0  0
  1  4  1  0  0  0  0
  1  7  1  0  0  0  0
  1  8  2  0  0  0  0
  2  6  1  0  0  0  0
  3  6  1  0  0  0  0
  4  5  1  0  0  0  0
  5  6  1  0  0  0  0
  2  9  1  0  0  0  0
  2 10  1  0  0  0  0
  2 11  1  0  0  0  0
  3 12  1  0  0  0  0
  3 13  1  0  0  0  0
  3 14  1  0  0  0  0
  4 15  1  0  0  0  0
  4 16  1  0  0  0  0
  5 17  1  0  0  0  0
  5 18  1  0  0  0  0
  6 19  1  0  0  0  0
M  CHG  1   7  -1
M  END
> <Chemgauss4>
-7.568456

$$$$
