
  -OEChem-08221715413D

 25 25  0     1  0  0  0  0  0999 V2000
    0.2241   -1.1357   -4.2804 C   0  0  0  0  0  0  0  0  0  0  0  0
    0.4652    0.1472   -4.5856 C   0  0  0  0  0  0  0  0  0  0  0  0
    1.7894   -0.5542   -1.5717 C   0  0  0  0  0  0  0  0  0  0  0  0
    1.1825    0.4275   -5.8319 C   0  0  0  0  0  0  0  0  0  0  0  0
    0.5566   -0.2851   -1.1171 C   0  0  0  0  0  0  0  0  0  0  0  0
   -0.4939   -1.5520   -3.0259 C   0  0  0  0  0  0  0  0  0  0  0  0
    0.0275    1.3042   -3.7403 C   0  0  0  0  0  0  0  0  0  0  0  0
   -1.0051    0.9021   -2.6793 C   0  0  0  0  0  0  0  0  0  0  0  0
   -0.6591   -0.4247   -1.9881 C   0  0  2  0  0  0  0  0  0  0  0  0
    0.3129    0.1732    0.2902 C   0  0  0  0  0  0  0  0  0  0  0  0
    0.6132    0.0157   -6.8813 O   0  5  0  0  0  0  0  0  0  0  0  0
    2.2758    1.0443   -5.6932 O   0  0  0  0  0  0  0  0  0  0  0  0
    0.5476   -1.9343   -4.9434 H   0  0  0  0  0  0  0  0  0  0  0  0
    2.6613   -0.4502   -0.9346 H   0  0  0  0  0  0  0  0  0  0  0  0
    1.9554   -0.8848   -2.5917 H   0  0  0  0  0  0  0  0  0  0  0  0
   -1.4888   -1.9348   -3.3003 H   0  0  0  0  0  0  0  0  0  0  0  0
    0.0542   -2.4021   -2.5903 H   0  0  0  0  0  0  0  0  0  0  0  0
    0.8919    1.7520   -3.2369 H   0  0  0  0  0  0  0  0  0  0  0  0
   -0.4008    2.0735   -4.3938 H   0  0  0  0  0  0  0  0  0  0  0  0
   -1.0802    1.7062   -1.9245 H   0  0  0  0  0  0  0  0  0  0  0  0
   -2.0002    0.8451   -3.1539 H   0  0  0  0  0  0  0  0  0  0  0  0
   -1.5025   -0.6880   -1.3241 H   0  0  0  0  0  0  0  0  0  0  0  0
    0.3537    1.2659    0.3463 H   0  0  0  0  0  0  0  0  0  0  0  0
   -0.6741   -0.1560    0.6311 H   0  0  0  0  0  0  0  0  0  0  0  0
    1.0569   -0.2247    0.9886 H   0  0  0  0  0  0  0  0  0  0  0  0
  1  2  2  0  0  0  0
  1  6  1  0  0  0  0
  2  4  1  0  0  0  0
  2  7  1  0  0  0  0
  3  5  2  0  0  0  0
  4 11  1  0  0  0  0
  4 12  2  0  0  0  0
  5  9  1  0  0  0  0
  5 10  1  0  0  0  0
  6  9  1  0  0  0  0
  7  8  1  0  0  0  0
  8  9  1  0  0  0  0
  1 13  1  0  0  0  0
  3 14  1  0  0  0  0
  3 15  1  0  0  0  0
  6 16  1  0  0  0  0
  6 17  1  0  0  0  0
  7 18  1  0  0  0  0
  7 19  1  0  0  0  0
  8 20  1  0  0  0  0
  8 21  1  0  0  0  0
  9 22  1  0  0  0  0
 10 23  1  0  0  0  0
 10 24  1  0  0  0  0
 10 25  1  0  0  0  0
M  CHG  1  11  -1
M  END
> <Chemgauss4>
-9.873334

$$$$
