
  -OEChem-08221715413D

 17 16  0     0  0  0  0  0  0999 V2000
   -0.2421   -0.0718    0.3818 C   0  0  0  0  0  0  0  0  0  0  0  0
    0.8393   -0.2077   -0.3937 C   0  0  0  0  0  0  0  0  0  0  0  0
   -1.3051    0.2551   -3.3541 C   0  0  0  0  0  0  0  0  0  0  0  0
    1.1850    0.7201   -1.5211 C   0  0  0  0  0  0  0  0  0  0  0  0
   -0.1018   -0.6816   -3.2022 C   0  0  0  0  0  0  0  0  0  0  0  0
    1.2330   -0.0262   -2.8578 C   0  0  0  0  0  0  0  0  0  0  0  0
   -1.5879    0.9108   -2.3102 O   0  5  0  0  0  0  0  0  0  0  0  0
   -1.8592    0.2770   -4.4873 O   0  0  0  0  0  0  0  0  0  0  0  0
   -0.4542   -0.7664    1.1869 H   0  0  0  0  0  0  0  0  0  0  0  0
   -0.9353    0.7462    0.2188 H   0  0  0  0  0  0  0  0  0  0  0  0
    1.5207   -1.0316   -0.1977 H   0  0  0  0  0  0  0  0  0  0  0  0
    2.1638    1.1681   -1.3121 H   0  0  0  0  0  0  0  0  0  0  0  0
    0.4650    1.5450   -1.5737 H   0  0  0  0  0  0  0  0  0  0  0  0
   -0.3602   -1.3853   -2.4008 H   0  0  0  0  0  0  0  0  0  0  0  0
    0.0074   -1.2732   -4.1197 H   0  0  0  0  0  0  0  0  0  0  0  0
    1.4879    0.6810   -3.6576 H   0  0  0  0  0  0  0  0  0  0  0  0
    2.0316   -0.7782   -2.8399 H   0  0  0  0  0  0  0  0  0  0  0  0
  1  2  2  0  0  0  0
  2  4  1  0  0  0  0
  3  5  1  0  0  0  0
  3  7  1  0  0  0  0
  3  8  2  0  0  0  0
  4  6  1  0  0  0  0
  5  6  1  0  0  0  0
  1  9  1  0  0  0  0
  1 10  1  0  0  0  0
  2 11  1  0  0  0  0
  4 12  1  0  0  0  0
  4 13  1  0  0  0  0
  5 14  1  0  0  0  0
  5 15  1  0  0  0  0
  6 16  1  0  0  0  0
  6 17  1  0  0  0  0
M  CHG  1   7  -1
M  END
> <Chemgauss4>
-7.734579

$$$$
