@<TRIPOS>MOLECULE
*****
   20    19     0     0     0
SMALL
USER_CHARGES

@<TRIPOS>ATOM
      1 C1         -0.2866    0.4967    0.4235 C.2       1 OA-G7        -0.2722
      2 C2          0.5456   -0.2925   -0.2653 C.2       1 OA-G7        -0.1158
      3 C3         -0.4668    0.9280   -2.9104 C.2       1 OA-G7         0.9203
      4 C4         -0.2478   -1.2662   -3.9394 C.3       1 OA-G7        -0.0613
      5 C5          1.8412   -0.1828   -3.0976 C.3       1 OA-G7        -0.0613
      6 C6          0.1341   -1.1088   -1.4604 C.3       1 OA-G7        -0.0318
      7 C7          0.3472   -0.3975   -2.8176 C.3       1 OA-G7        -0.1761
      8 O1          0.0219    1.8174   -3.6661 O.co2     1 OA-G7        -0.8421
      9 O2         -1.5202    0.9791   -2.2135 O.co2     1 OA-G7        -0.8421
     10 H1          0.0739    1.0661    1.2731 H         1 OA-G7         0.0940
     11 H2         -1.3337    0.5874    0.1569 H         1 OA-G7         0.0940
     12 H3          1.5866   -0.3410    0.0423 H         1 OA-G7         0.1179
     13 H4          0.2408   -2.2465   -3.9896 H         1 OA-G7         0.0174
     14 H5         -1.3183   -1.4368   -3.7775 H         1 OA-G7         0.0174
     15 H6         -0.1351   -0.7947   -4.9226 H         1 OA-G7         0.0174
     16 H7          2.4044   -1.1200   -3.0300 H         1 OA-G7         0.0174
     17 H8          2.2889    0.5140   -2.3793 H         1 OA-G7         0.0174
     18 H9          1.9989    0.2349   -4.0984 H         1 OA-G7         0.0174
     19 H10        -0.9230   -1.3748   -1.3296 H         1 OA-G7         0.0361
     20 H11         0.6796   -2.0624   -1.4653 H         1 OA-G7         0.0361
@<TRIPOS>BOND
     1    1    2 2
     2    2    6 1
     3    3    7 1
     4    3    8 1
     5    3    9 2
     6    4    7 1
     7    5    7 1
     8    6    7 1
     9    1   10 1
    10    1   11 1
    11    2   12 1
    12    4   13 1
    13    4   14 1
    14    4   15 1
    15    5   16 1
    16    5   17 1
    17    5   18 1
    18    6   19 1
    19    6   20 1
