@<TRIPOS>MOLECULE
*****
   29    28     0     0     0
SMALL
USER_CHARGES

@<TRIPOS>ATOM
      1 C1         -0.3023   -0.8943   -1.9056 C.2       1 OA-G4        -0.1404
      2 C2          0.4373   -0.5293   -0.8413 C.2       1 OA-G4        -0.1495
      3 C3          1.0556    1.4485   -5.1381 C.2       1 OA-G4         0.9070
      4 C4         -0.1104   -0.2112    0.5212 C.3       1 OA-G4        -0.0516
      5 C5          1.9350   -0.4263   -0.9512 C.3       1 OA-G4        -0.0516
      6 C6         -1.9787    1.0573   -5.6003 C.3       1 OA-G4        -0.0863
      7 C7          0.1827   -1.2245   -3.2898 C.3       1 OA-G4        -0.0513
      8 C8         -0.0475    1.5230   -4.0753 C.3       1 OA-G4        -0.1913
      9 C9         -0.8663   -0.8574   -4.3441 C.3       1 OA-G4        -0.0702
     10 C10        -1.2784    0.6305   -4.3059 C.3       1 OA-G4        -0.0468
     11 O1          2.0098    2.2581   -4.9567 O.co2     1 OA-G4        -0.8535
     12 O2          0.8803    0.6125   -6.0669 O.co2     1 OA-G4        -0.8535
     13 H1         -1.3802   -0.9841   -1.7762 H         1 OA-G4         0.1136
     14 H2         -0.1488   -1.1197    1.1320 H         1 OA-G4         0.0329
     15 H3         -1.1238    0.1959    0.4987 H         1 OA-G4         0.0329
     16 H4          0.5344    0.5154    1.0259 H         1 OA-G4         0.0329
     17 H5          2.2639    0.5732   -1.2544 H         1 OA-G4         0.0329
     18 H6          2.3111   -1.1387   -1.6928 H         1 OA-G4         0.0329
     19 H7          2.4012   -0.6500    0.0139 H         1 OA-G4         0.0329
     20 H8         -1.3241    0.9347   -6.4681 H         1 OA-G4         0.0239
     21 H9         -2.2613    2.1149   -5.5589 H         1 OA-G4         0.0239
     22 H10        -2.8879    0.4712   -5.7716 H         1 OA-G4         0.0239
     23 H11         0.3887   -2.3007   -3.3170 H         1 OA-G4         0.0439
     24 H12         1.1330   -0.7307   -3.5143 H         1 OA-G4         0.0439
     25 H13         0.3900    1.2984   -3.0936 H         1 OA-G4         0.0220
     26 H14        -0.3600    2.5753   -4.0472 H         1 OA-G4         0.0220
     27 H15        -0.4864   -1.1087   -5.3434 H         1 OA-G4         0.0397
     28 H16        -1.7539   -1.4826   -4.1850 H         1 OA-G4         0.0397
     29 H17        -1.9857    0.7778   -3.4799 H         1 OA-G4         0.0452
@<TRIPOS>BOND
     1    1    2 2
     2    1    7 1
     3    2    4 1
     4    2    5 1
     5    3    8 1
     6    3   11 1
     7    3   12 2
     8    6   10 1
     9    7    9 1
    10    8   10 1
    11    9   10 1
    12    1   13 1
    13    4   14 1
    14    4   15 1
    15    4   16 1
    16    5   17 1
    17    5   18 1
    18    5   19 1
    19    6   20 1
    20    6   21 1
    21    6   22 1
    22    7   23 1
    23    7   24 1
    24    8   25 1
    25    8   26 1
    26    9   27 1
    27    9   28 1
    28   10   29 1
