
  -OEChem-08221715423D

 29 28  0     1  0  0  0  0  0999 V2000
   -0.3023   -0.8943   -1.9056 C   0  0  0  0  0  0  0  0  0  0  0  0
    0.4373   -0.5293   -0.8413 C   0  0  0  0  0  0  0  0  0  0  0  0
    1.0556    1.4485   -5.1381 C   0  0  0  0  0  0  0  0  0  0  0  0
   -0.1104   -0.2112    0.5212 C   0  0  0  0  0  0  0  0  0  0  0  0
    1.9350   -0.4263   -0.9512 C   0  0  0  0  0  0  0  0  0  0  0  0
   -1.9787    1.0573   -5.6003 C   0  0  0  0  0  0  0  0  0  0  0  0
    0.1827   -1.2245   -3.2898 C   0  0  0  0  0  0  0  0  0  0  0  0
   -0.0475    1.5230   -4.0753 C   0  0  0  0  0  0  0  0  0  0  0  0
   -0.8663   -0.8574   -4.3441 C   0  0  0  0  0  0  0  0  0  0  0  0
   -1.2784    0.6305   -4.3059 C   0  0  2  0  0  0  0  0  0  0  0  0
    2.0098    2.2581   -4.9567 O   0  5  0  0  0  0  0  0  0  0  0  0
    0.8803    0.6125   -6.0669 O   0  0  0  0  0  0  0  0  0  0  0  0
   -1.3802   -0.9841   -1.7762 H   0  0  0  0  0  0  0  0  0  0  0  0
   -0.1488   -1.1197    1.1320 H   0  0  0  0  0  0  0  0  0  0  0  0
   -1.1238    0.1959    0.4987 H   0  0  0  0  0  0  0  0  0  0  0  0
    0.5344    0.5154    1.0259 H   0  0  0  0  0  0  0  0  0  0  0  0
    2.2639    0.5732   -1.2544 H   0  0  0  0  0  0  0  0  0  0  0  0
    2.3111   -1.1387   -1.6928 H   0  0  0  0  0  0  0  0  0  0  0  0
    2.4012   -0.6500    0.0139 H   0  0  0  0  0  0  0  0  0  0  0  0
   -1.3241    0.9347   -6.4681 H   0  0  0  0  0  0  0  0  0  0  0  0
   -2.2613    2.1149   -5.5589 H   0  0  0  0  0  0  0  0  0  0  0  0
   -2.8879    0.4712   -5.7716 H   0  0  0  0  0  0  0  0  0  0  0  0
    0.3887   -2.3007   -3.3170 H   0  0  0  0  0  0  0  0  0  0  0  0
    1.1330   -0.7307   -3.5143 H   0  0  0  0  0  0  0  0  0  0  0  0
    0.3900    1.2984   -3.0936 H   0  0  0  0  0  0  0  0  0  0  0  0
   -0.3600    2.5753   -4.0472 H   0  0  0  0  0  0  0  0  0  0  0  0
   -0.4864   -1.1087   -5.3434 H   0  0  0  0  0  0  0  0  0  0  0  0
   -1.7539   -1.4826   -4.1850 H   0  0  0  0  0  0  0  0  0  0  0  0
   -1.9857    0.7778   -3.4799 H   0  0  0  0  0  0  0  0  0  0  0  0
  1  2  2  0  0  0  0
  1  7  1  0  0  0  0
  2  4  1  0  0  0  0
  2  5  1  0  0  0  0
  3  8  1  0  0  0  0
  3 11  1  0  0  0  0
  3 12  2  0  0  0  0
  6 10  1  0  0  0  0
  7  9  1  0  0  0  0
  8 10  1  0  0  0  0
  9 10  1  0  0  0  0
  1 13  1  0  0  0  0
  4 14  1  0  0  0  0
  4 15  1  0  0  0  0
  4 16  1  0  0  0  0
  5 17  1  0  0  0  0
  5 18  1  0  0  0  0
  5 19  1  0  0  0  0
  6 20  1  0  0  0  0
  6 21  1  0  0  0  0
  6 22  1  0  0  0  0
  7 23  1  0  0  0  0
  7 24  1  0  0  0  0
  8 25  1  0  0  0  0
  8 26  1  0  0  0  0
  9 27  1  0  0  0  0
  9 28  1  0  0  0  0
 10 29  1  0  0  0  0
M  CHG  1  11  -1
M  END
> <Chemgauss4>
-9.173710

$$$$
