
  -OEChem-08221715413D

 17 16  0     0  0  0  0  0  0999 V2000
   -1.0006   -0.7469   -3.8833 C   0  0  0  0  0  0  0  0  0  0  0  0
   -0.0084   -0.5611   -3.0020 C   0  0  0  0  0  0  0  0  0  0  0  0
   -0.8433   -0.3922   -5.3688 C   0  0  0  0  0  0  0  0  0  0  0  0
   -0.0381    0.0211    0.8063 C   0  0  0  0  0  0  0  0  0  0  0  0
   -0.1259   -0.8917   -1.5409 C   0  0  0  0  0  0  0  0  0  0  0  0
    0.1069    0.3450   -0.6725 C   0  0  0  0  0  0  0  0  0  0  0  0
    0.2681    0.0857   -5.7303 O   0  5  0  0  0  0  0  0  0  0  0  0
   -1.8736   -0.6292   -6.0659 O   0  0  0  0  0  0  0  0  0  0  0  0
   -1.9447   -1.1634   -3.5343 H   0  0  0  0  0  0  0  0  0  0  0  0
    0.9430   -0.1434   -3.3206 H   0  0  0  0  0  0  0  0  0  0  0  0
   -1.0312   -0.3847    1.0235 H   0  0  0  0  0  0  0  0  0  0  0  0
    0.0983    0.9255    1.4073 H   0  0  0  0  0  0  0  0  0  0  0  0
    0.7104   -0.7126    1.1224 H   0  0  0  0  0  0  0  0  0  0  0  0
   -1.1300   -1.2920   -1.3561 H   0  0  0  0  0  0  0  0  0  0  0  0
    0.5854   -1.6783   -1.2604 H   0  0  0  0  0  0  0  0  0  0  0  0
    1.1106    0.7483   -0.8545 H   0  0  0  0  0  0  0  0  0  0  0  0
   -0.6092    1.1326   -0.9379 H   0  0  0  0  0  0  0  0  0  0  0  0
  1  2  2  0  0  0  0
  1  3  1  0  0  0  0
  2  5  1  0  0  0  0
  3  7  1  0  0  0  0
  3  8  2  0  0  0  0
  4  6  1  0  0  0  0
  5  6  1  0  0  0  0
  1  9  1  0  0  0  0
  2 10  1  0  0  0  0
  4 11  1  0  0  0  0
  4 12  1  0  0  0  0
  4 13  1  0  0  0  0
  5 14  1  0  0  0  0
  5 15  1  0  0  0  0
  6 16  1  0  0  0  0
  6 17  1  0  0  0  0
M  CHG  1   7  -1
M  END
> <Chemgauss4>
-6.831202

$$$$
