@<TRIPOS>MOLECULE
*****
   19    18     0     0     0
SMALL
USER_CHARGES

@<TRIPOS>ATOM
      1 C1         -1.3428    0.3977   -4.1555 C.2       1 OA-G6         0.9077
      2 C2          1.3494    0.8562   -1.6206 C.3       1 OA-G6        -0.0835
      3 C3         -0.1465    0.0031    0.1950 C.3       1 OA-G6        -0.0835
      4 C4         -0.4127   -0.7040   -3.6398 C.3       1 OA-G6        -0.1945
      5 C5         -0.4163   -0.9172   -2.1271 C.3       1 OA-G6        -0.0475
      6 C6         -0.0498    0.3297   -1.2978 C.3       1 OA-G6        -0.0731
      7 O1         -1.4251    0.5122   -5.4098 O.co2     1 OA-G6        -0.8547
      8 O2         -1.9062    1.0746   -3.2485 O.co2     1 OA-G6        -0.8547
      9 H1          2.1072    0.0897   -1.4250 H         1 OA-G6         0.0219
     10 H2          1.6012    1.7234   -1.0027 H         1 OA-G6         0.0219
     11 H3          1.4304    1.1499   -2.6726 H         1 OA-G6         0.0219
     12 H4          0.5555   -0.7928    0.4655 H         1 OA-G6         0.0219
     13 H5         -1.1538   -0.3402    0.4542 H         1 OA-G6         0.0219
     14 H6          0.0812    0.8805    0.8099 H         1 OA-G6         0.0219
     15 H7          0.6080   -0.5200   -3.9934 H         1 OA-G6         0.0204
     16 H8         -0.7392   -1.6346   -4.1217 H         1 OA-G6         0.0204
     17 H9          0.2862   -1.7273   -1.8917 H         1 OA-G6         0.0254
     18 H10        -1.4072   -1.2739   -1.8180 H         1 OA-G6         0.0254
     19 H11        -0.7712    1.1284   -1.5083 H         1 OA-G6         0.0605
@<TRIPOS>BOND
     1    1    4 1
     2    1    7 1
     3    1    8 2
     4    2    6 1
     5    3    6 1
     6    4    5 1
     7    5    6 1
     8    2    9 1
     9    2   10 1
    10    2   11 1
    11    3   12 1
    12    3   13 1
    13    3   14 1
    14    4   15 1
    15    4   16 1
    16    5   17 1
    17    5   18 1
    18    6   19 1
