@<TRIPOS>MOLECULE
*****
   17    16     0     0     0
SMALL
USER_CHARGES

@<TRIPOS>ATOM
      1 C1          0.4721   -0.3596    0.1049 C.2       1 OA-G5        -0.2672
      2 C2         -0.6140    0.0086   -0.5838 C.2       1 OA-G5        -0.1210
      3 C3         -0.3138   -0.7087   -3.7837 C.2       1 OA-G5         0.9139
      4 C4         -1.6475    1.3143   -4.0310 C.3       1 OA-G5        -0.0646
      5 C5         -0.5825    0.9091   -1.7860 C.3       1 OA-G5        -0.0357
      6 C6         -1.2344    0.2559   -3.0098 C.3       1 OA-G5        -0.1855
      7 O1          0.5382   -1.3387   -3.0968 O.co2     1 OA-G5        -0.8470
      8 O2         -0.5250   -0.7473   -5.0305 O.co2     1 OA-G5        -0.8470
      9 H1          0.4022   -1.0124    0.9678 H         1 OA-G5         0.0956
     10 H2          1.4547   -0.0073   -0.1892 H         1 OA-G5         0.0956
     11 H3         -1.5854   -0.3514   -0.2552 H         1 OA-G5         0.1121
     12 H4         -0.7758    1.8832   -4.3717 H         1 OA-G5         0.0157
     13 H5         -2.3607    2.0256   -3.5996 H         1 OA-G5         0.0157
     14 H6         -2.1200    0.8627   -4.9107 H         1 OA-G5         0.0157
     15 H7          0.4463    1.2159   -2.0129 H         1 OA-G5         0.0359
     16 H8         -1.1278    1.8263   -1.5296 H         1 OA-G5         0.0359
     17 H9         -2.1320   -0.2920   -2.6927 H         1 OA-G5         0.0317
@<TRIPOS>BOND
     1    1    2 2
     2    2    5 1
     3    3    6 1
     4    3    7 1
     5    3    8 2
     6    4    6 1
     7    5    6 1
     8    1    9 1
     9    1   10 1
    10    2   11 1
    11    4   12 1
    12    4   13 1
    13    4   14 1
    14    5   15 1
    15    5   16 1
    16    6   17 1
