
  -OEChem-08221715423D

 20 19  0     0  0  0  0  0  0999 V2000
   -0.2866    0.4967    0.4235 C   0  0  0  0  0  0  0  0  0  0  0  0
    0.5456   -0.2925   -0.2653 C   0  0  0  0  0  0  0  0  0  0  0  0
   -0.4668    0.9280   -2.9104 C   0  0  0  0  0  0  0  0  0  0  0  0
   -0.2478   -1.2662   -3.9394 C   0  0  0  0  0  0  0  0  0  0  0  0
    1.8412   -0.1828   -3.0976 C   0  0  0  0  0  0  0  0  0  0  0  0
    0.1341   -1.1088   -1.4604 C   0  0  0  0  0  0  0  0  0  0  0  0
    0.3472   -0.3975   -2.8176 C   0  0  0  0  0  0  0  0  0  0  0  0
    0.0219    1.8174   -3.6661 O   0  5  0  0  0  0  0  0  0  0  0  0
   -1.5202    0.9791   -2.2135 O   0  0  0  0  0  0  0  0  0  0  0  0
    0.0739    1.0661    1.2731 H   0  0  0  0  0  0  0  0  0  0  0  0
   -1.3337    0.5874    0.1569 H   0  0  0  0  0  0  0  0  0  0  0  0
    1.5866   -0.3410    0.0423 H   0  0  0  0  0  0  0  0  0  0  0  0
    0.2408   -2.2465   -3.9896 H   0  0  0  0  0  0  0  0  0  0  0  0
   -1.3183   -1.4368   -3.7775 H   0  0  0  0  0  0  0  0  0  0  0  0
   -0.1351   -0.7947   -4.9226 H   0  0  0  0  0  0  0  0  0  0  0  0
    2.4044   -1.1200   -3.0300 H   0  0  0  0  0  0  0  0  0  0  0  0
    2.2889    0.5140   -2.3793 H   0  0  0  0  0  0  0  0  0  0  0  0
    1.9989    0.2349   -4.0984 H   0  0  0  0  0  0  0  0  0  0  0  0
   -0.9230   -1.3748   -1.3296 H   0  0  0  0  0  0  0  0  0  0  0  0
    0.6796   -2.0624   -1.4653 H   0  0  0  0  0  0  0  0  0  0  0  0
  1  2  2  0  0  0  0
  2  6  1  0  0  0  0
  3  7  1  0  0  0  0
  3  8  1  0  0  0  0
  3  9  2  0  0  0  0
  4  7  1  0  0  0  0
  5  7  1  0  0  0  0
  6  7  1  0  0  0  0
  1 10  1  0  0  0  0
  1 11  1  0  0  0  0
  2 12  1  0  0  0  0
  4 13  1  0  0  0  0
  4 14  1  0  0  0  0
  4 15  1  0  0  0  0
  5 16  1  0  0  0  0
  5 17  1  0  0  0  0
  5 18  1  0  0  0  0
  6 19  1  0  0  0  0
  6 20  1  0  0  0  0
M  CHG  1   8  -1
M  END
> <Chemgauss4>
-8.483130

$$$$
