@<TRIPOS>MOLECULE
*****
   25    25     0     0     0
SMALL
USER_CHARGES

@<TRIPOS>ATOM
      1 C1          0.2241   -1.1357   -4.2804 C.2       1 OA-G2        -0.2215
      2 C2          0.4652    0.1472   -4.5856 C.2       1 OA-G2        -0.1375
      3 C3          1.7894   -0.5542   -1.5717 C.2       1 OA-G2        -0.2457
      4 C4          1.1825    0.4275   -5.8319 C.2       1 OA-G2         0.9000
      5 C5          0.5566   -0.2851   -1.1171 C.2       1 OA-G2        -0.0950
      6 C6         -0.4939   -1.5520   -3.0259 C.3       1 OA-G2        -0.0254
      7 C7          0.0275    1.3042   -3.7403 C.3       1 OA-G2        -0.0395
      8 C8         -1.0051    0.9021   -2.6793 C.3       1 OA-G2        -0.0668
      9 C9         -0.6591   -0.4247   -1.9881 C.3       1 OA-G2        -0.0291
     10 C10         0.3129    0.1732    0.2902 C.3       1 OA-G2        -0.0621
     11 O1          0.6132    0.0157   -6.8813 O.co2     1 OA-G2        -0.8377
     12 O2          2.2758    1.0443   -5.6932 O.co2     1 OA-G2        -0.8377
     13 H1          0.5476   -1.9343   -4.9434 H         1 OA-G2         0.1308
     14 H2          2.6613   -0.4502   -0.9346 H         1 OA-G2         0.1077
     15 H3          1.9554   -0.8848   -2.5917 H         1 OA-G2         0.1077
     16 H4         -1.4888   -1.9348   -3.3003 H         1 OA-G2         0.0233
     17 H5          0.0542   -2.4021   -2.5903 H         1 OA-G2         0.0233
     18 H6          0.8919    1.7520   -3.2369 H         1 OA-G2         0.0551
     19 H7         -0.4008    2.0735   -4.3938 H         1 OA-G2         0.0551
     20 H8         -1.0802    1.7062   -1.9245 H         1 OA-G2         0.0247
     21 H9         -2.0002    0.8451   -3.1539 H         1 OA-G2         0.0247
     22 H10        -1.5025   -0.6880   -1.3241 H         1 OA-G2         0.0441
     23 H11         0.3537    1.2659    0.3463 H         1 OA-G2         0.0338
     24 H12        -0.6741   -0.1560    0.6311 H         1 OA-G2         0.0338
     25 H13         1.0569   -0.2247    0.9886 H         1 OA-G2         0.0338
@<TRIPOS>BOND
     1    1    2 2
     2    1    6 1
     3    2    4 1
     4    2    7 1
     5    3    5 2
     6    4   11 1
     7    4   12 2
     8    5    9 1
     9    5   10 1
    10    6    9 1
    11    7    8 1
    12    8    9 1
    13    1   13 1
    14    3   14 1
    15    3   15 1
    16    6   16 1
    17    6   17 1
    18    7   18 1
    19    7   19 1
    20    8   20 1
    21    8   21 1
    22    9   22 1
    23   10   23 1
    24   10   24 1
    25   10   25 1
