
  -OEChem-08221715423D

 17 16  0     1  0  0  0  0  0999 V2000
    0.4721   -0.3596    0.1049 C   0  0  0  0  0  0  0  0  0  0  0  0
   -0.6140    0.0086   -0.5838 C   0  0  0  0  0  0  0  0  0  0  0  0
   -0.3138   -0.7087   -3.7837 C   0  0  0  0  0  0  0  0  0  0  0  0
   -1.6475    1.3143   -4.0310 C   0  0  0  0  0  0  0  0  0  0  0  0
   -0.5825    0.9091   -1.7860 C   0  0  0  0  0  0  0  0  0  0  0  0
   -1.2344    0.2559   -3.0098 C   0  0  2  0  0  0  0  0  0  0  0  0
    0.5382   -1.3387   -3.0968 O   0  5  0  0  0  0  0  0  0  0  0  0
   -0.5250   -0.7473   -5.0305 O   0  0  0  0  0  0  0  0  0  0  0  0
    0.4022   -1.0124    0.9678 H   0  0  0  0  0  0  0  0  0  0  0  0
    1.4547   -0.0073   -0.1892 H   0  0  0  0  0  0  0  0  0  0  0  0
   -1.5854   -0.3514   -0.2552 H   0  0  0  0  0  0  0  0  0  0  0  0
   -0.7758    1.8832   -4.3717 H   0  0  0  0  0  0  0  0  0  0  0  0
   -2.3607    2.0256   -3.5996 H   0  0  0  0  0  0  0  0  0  0  0  0
   -2.1200    0.8627   -4.9107 H   0  0  0  0  0  0  0  0  0  0  0  0
    0.4463    1.2159   -2.0129 H   0  0  0  0  0  0  0  0  0  0  0  0
   -1.1278    1.8263   -1.5296 H   0  0  0  0  0  0  0  0  0  0  0  0
   -2.1320   -0.2920   -2.6927 H   0  0  0  0  0  0  0  0  0  0  0  0
  1  2  2  0  0  0  0
  2  5  1  0  0  0  0
  3  6  1  0  0  0  0
  3  7  1  0  0  0  0
  3  8  2  0  0  0  0
  4  6  1  0  0  0  0
  5  6  1  0  0  0  0
  1  9  1  0  0  0  0
  1 10  1  0  0  0  0
  2 11  1  0  0  0  0
  4 12  1  0  0  0  0
  4 13  1  0  0  0  0
  4 14  1  0  0  0  0
  5 15  1  0  0  0  0
  5 16  1  0  0  0  0
  6 17  1  0  0  0  0
M  CHG  1   7  -1
M  END
> <Chemgauss4>
-7.638822

$$$$
