@<TRIPOS>MOLECULE
*****
   17    16     0     0     0
SMALL
USER_CHARGES

@<TRIPOS>ATOM
      1 C1         -1.0006   -0.7469   -3.8833 C.2       1 OA-G1        -0.1854
      2 C2         -0.0084   -0.5611   -3.0020 C.2       1 OA-G1        -0.2217
      3 C3         -0.8433   -0.3922   -5.3688 C.2       1 OA-G1         0.8906
      4 C4         -0.0381    0.0211    0.8063 C.3       1 OA-G1        -0.0912
      5 C5         -0.1259   -0.8917   -1.5409 C.3       1 OA-G1        -0.0366
      6 C6          0.1069    0.3450   -0.6725 C.3       1 OA-G1        -0.0724
      7 O1          0.2681    0.0857   -5.7303 O.co2     1 OA-G1        -0.8428
      8 O2         -1.8736   -0.6292   -6.0659 O.co2     1 OA-G1        -0.8428
      9 H1         -1.9447   -1.1634   -3.5343 H         1 OA-G1         0.0946
     10 H2          0.9430   -0.1434   -3.3206 H         1 OA-G1         0.1278
     11 H3         -1.0312   -0.3847    1.0235 H         1 OA-G1         0.0280
     12 H4          0.0983    0.9255    1.4073 H         1 OA-G1         0.0280
     13 H5          0.7104   -0.7126    1.1224 H         1 OA-G1         0.0280
     14 H6         -1.1300   -1.2920   -1.3561 H         1 OA-G1         0.0212
     15 H7          0.5854   -1.6783   -1.2604 H         1 OA-G1         0.0212
     16 H8          1.1106    0.7483   -0.8545 H         1 OA-G1         0.0268
     17 H9         -0.6092    1.1326   -0.9379 H         1 OA-G1         0.0268
@<TRIPOS>BOND
     1    1    2 2
     2    1    3 1
     3    2    5 1
     4    3    7 1
     5    3    8 2
     6    4    6 1
     7    5    6 1
     8    1    9 1
     9    2   10 1
    10    4   11 1
    11    4   12 1
    12    4   13 1
    13    5   14 1
    14    5   15 1
    15    6   16 1
    16    6   17 1
