@<TRIPOS>MOLECULE
*****
   20    20     0     0     0
SMALL
USER_CHARGES

@<TRIPOS>ATOM
      1 C1         -0.7955    1.2297   -3.7854 C.2       1 OA-G0         0.9081
      2 C2          1.3091   -0.3847   -0.7486 C.3       1 OA-G0        -0.0764
      3 C3          0.5096    0.2717    0.3768 C.3       1 OA-G0        -0.0764
      4 C4          0.2838   -0.8860   -1.7613 C.3       1 OA-G0        -0.0801
      5 C5         -0.9597    0.1420   -0.0138 C.3       1 OA-G0        -0.0801
      6 C6         -0.9546   -0.0222   -1.5321 C.3       1 OA-G0        -0.0401
      7 C7         -0.8697    1.3180   -2.2595 C.3       1 OA-G0        -0.1893
      8 O1          0.2049    0.6341   -4.2709 O.co2     1 OA-G0        -0.8533
      9 O2         -1.7693    1.7767   -4.3800 O.co2     1 OA-G0        -0.8533
     10 H1          2.0136    0.3154   -1.2099 H         1 OA-G0         0.0208
     11 H2          1.8934   -1.2223   -0.3497 H         1 OA-G0         0.0208
     12 H3          0.7004   -0.2524    1.3210 H         1 OA-G0         0.0208
     13 H4          0.7925    1.3196    0.5218 H         1 OA-G0         0.0208
     14 H5          0.6733   -0.7466   -2.7812 H         1 OA-G0         0.0410
     15 H6          0.0732   -1.9566   -1.6356 H         1 OA-G0         0.0410
     16 H7         -1.4456   -0.7024    0.4948 H         1 OA-G0         0.0410
     17 H8         -1.5023    1.0547    0.2785 H         1 OA-G0         0.0410
     18 H9         -1.8449   -0.5532   -1.8532 H         1 OA-G0         0.0500
     19 H10         0.0170    1.8572   -1.9078 H         1 OA-G0         0.0218
     20 H11        -1.7461    1.9209   -1.9970 H         1 OA-G0         0.0218
@<TRIPOS>BOND
     1    1    7 1
     2    1    8 1
     3    1    9 2
     4    2    3 1
     5    2    4 1
     6    3    5 1
     7    4    6 1
     8    5    6 1
     9    6    7 1
    10    2   10 1
    11    2   11 1
    12    3   12 1
    13    3   13 1
    14    4   14 1
    15    4   15 1
    16    5   16 1
    17    5   17 1
    18    6   18 1
    19    7   19 1
    20    7   20 1
