@<TRIPOS>MOLECULE
*****
  196   216     0     0     0
SMALL
NO_CHARGES

@<TRIPOS>ATOM
      1 C1          2.0590   -2.5260    2.9190 C.ar      1 OCB1        0.0000
      2 C2          3.7650   -0.4150    2.1400 C.ar      1 OCB1        0.0000
      3 C3          2.1210   -1.3250    3.6600 C.ar      1 OCB1        0.0000
      4 C4          2.8690   -2.6230    1.7750 C.ar      1 OCB1        0.0000
      5 C5          3.7530   -1.6040    1.4190 C.ar      1 OCB1        0.0000
      6 C6          2.9780   -0.2620    3.2890 C.ar      1 OCB1        0.0000
      7 O1          4.5890    0.5870    1.6950 O.3       1 OCB1        0.0000
      8 C7          3.0100    1.0750    4.0380 C.3       1 OCB1        0.0000
      9 C8          3.8540    1.6020    0.9760 C.3       1 OCB1        0.0000
     10 O2          3.6120    2.7670    1.7870 O.3       1 OCB1        0.0000
     11 C9          2.3330    2.7750    2.2810 C.ar      1 OCB1        0.0000
     12 C10         1.9750    2.0060    3.3960 C.ar      1 OCB1        0.0000
     13 C11         0.6300    2.0530    3.8160 C.ar      1 OCB1        0.0000
     14 C12         1.4070    3.5970    1.6370 C.ar      1 OCB1        0.0000
     15 C13        -0.3360    2.8660    3.1720 C.ar      1 OCB1        0.0000
     16 C14         0.0730    3.6010    2.0450 C.ar      1 OCB1        0.0000
     17 O3         -0.7850    4.3710    1.2950 O.3       1 OCB1        0.0000
     18 C15        -1.7890    2.9270    3.6750 C.3       1 OCB1        0.0000
     19 C16        -2.6510    1.9280    2.9020 C.ar      1 OCB1        0.0000
     20 C17        -3.1970    2.2780    1.6550 C.ar      1 OCB1        0.0000
     21 C18        -1.6560    3.5500    0.4900 C.3       1 OCB1        0.0000
     22 O4         -2.9730    3.5060    1.0800 O.3       1 OCB1        0.0000
     23 O5          2.8170   -3.7110    0.9390 O.3       1 OCB1        0.0000
     24 C19         1.0890   -3.6680    3.2730 C.3       1 OCB1        0.0000
     25 C20        -0.2280   -3.4560    2.5210 C.ar      1 OCB1        0.0000
     26 O6          0.6390   -4.5780    0.5480 O.3       1 OCB1        0.0000
     27 C21        -0.3780   -3.9380    1.2130 C.ar      1 OCB1        0.0000
     28 C22        -3.9720    1.3810    0.9210 C.ar      1 OCB1        0.0000
     29 C23        -4.1170    0.0710    1.3710 C.ar      1 OCB1        0.0000
     30 C24        -1.5880   -3.8060    0.5330 C.ar      1 OCB1        0.0000
     31 C25        -2.6390   -3.0960    1.1140 C.ar      1 OCB1        0.0000
     32 O7         -4.7810   -0.7990    0.5390 O.3       1 OCB1        0.0000
     33 O8         -3.7780   -2.9400    0.3620 O.3       1 OCB1        0.0000
     34 C26        -3.8460   -1.6140   -0.1990 C.3       1 OCB1        0.0000
     35 C27        -1.3110   -2.7540    3.0930 C.ar      1 OCB1        0.0000
     36 C28        -2.5350   -2.5810    2.4150 C.ar      1 OCB1        0.0000
     37 C29        -2.8550    0.6090    3.3560 C.ar      1 OCB1        0.0000
     38 C30        -3.6980   -1.7990    3.0410 C.3       1 OCB1        0.0000
     39 C31        -3.5880   -0.3370    2.6060 C.ar      1 OCB1        0.0000
     40 C32         1.6440   -3.6460    0.1020 C.3       1 OCB1        0.0000
     41 C33        -1.8920    2.8800    5.2330 C.3       1 OCB1        0.0000
     42 C34        -3.2770    3.2440    5.7840 C.3       1 OCB1        0.0000
     43 C35        -3.3200    3.6810    7.2590 C.2       1 OCB1        0.0000
     44 O9         -2.2800    3.4970    7.9490 O.co2     1 OCB1        0.0000
     45 C36         2.9630    0.9330    5.5800 C.3       1 OCB1        0.0000
     46 C37         3.4210    2.1990    6.3180 C.3       1 OCB1        0.0000
     47 C38         4.9430    2.3570    6.4180 C.2       1 OCB1        0.0000
     48 O10         5.5270    1.5680    7.2180 O.co2     1 OCB1        0.0000
     49 C39         0.9470   -3.9260    4.8020 C.3       1 OCB1        0.0000
     50 C40         0.1270   -5.1720    5.1670 C.3       1 OCB1        0.0000
     51 C41         0.9210   -6.4790    5.1260 C.2       1 OCB1        0.0000
     52 O11         1.6850   -6.6870    6.1150 O.co2     1 OCB1        0.0000
     53 C42        -3.8820   -2.0630    4.5650 C.3       1 OCB1        0.0000
     54 C43        -5.2220   -1.5520    5.1130 C.3       1 OCB1        0.0000
     55 C44        -5.6100   -2.1380    6.4790 C.2       1 OCB1        0.0000
     56 O12        -4.6700   -2.3730    7.2870 O.co2     1 OCB1        0.0000
     57 C45         4.6930    2.0390   -0.2350 C.ar      1 OCB1        0.0000
     58 C46         6.1290    2.7700   -2.5370 C.ar      1 OCB1        0.0000
     59 C47         4.5450    3.3240   -0.7990 C.ar      1 OCB1        0.0000
     60 C48         5.5640    1.1290   -0.8610 C.ar      1 OCB1        0.0000
     61 C49         6.2700    1.4870   -2.0100 C.ar      1 OCB1        0.0000
     62 C50         5.2420    3.6780   -1.9550 C.ar      1 OCB1        0.0000
     63 C51         2.0490   -3.9870   -1.3430 C.ar      1 OCB1        0.0000
     64 C52         2.7120   -4.4700   -4.0280 C.ar      1 OCB1        0.0000
     65 C53         1.1450   -4.6440   -2.2040 C.ar      1 OCB1        0.0000
     66 C54         3.2920   -3.5660   -1.8690 C.ar      1 OCB1        0.0000
     67 C55         3.6270   -3.8090   -3.2020 C.ar      1 OCB1        0.0000
     68 C56         1.4700   -4.8840   -3.5390 C.ar      1 OCB1        0.0000
     69 C57        -4.3120   -1.7290   -1.6630 C.ar      1 OCB1        0.0000
     70 C58        -5.0310   -1.8980   -4.3780 C.ar      1 OCB1        0.0000
     71 C59        -5.1000   -0.7260   -2.2630 C.ar      1 OCB1        0.0000
     72 C60        -3.8760   -2.8050   -2.4680 C.ar      1 OCB1        0.0000
     73 C61        -4.2350   -2.8960   -3.8140 C.ar      1 OCB1        0.0000
     74 C62        -5.4430   -0.8030   -3.6150 C.ar      1 OCB1        0.0000
     75 C63        -1.7410    4.1250   -0.9440 C.ar      1 OCB1        0.0000
     76 C64        -1.8220    4.9570   -3.6250 C.ar      1 OCB1        0.0000
     77 C65        -2.9430    4.0570   -1.6900 C.ar      1 OCB1        0.0000
     78 C66        -0.5790    4.6200   -1.5860 C.ar      1 OCB1        0.0000
     79 C67        -0.6210    5.0360   -2.9190 C.ar      1 OCB1        0.0000
     80 C68        -2.9800    4.4650   -3.0250 C.ar      1 OCB1        0.0000
     81 O13         4.8010   -3.4410   -3.8260 O.3       1 OCB1        0.0000
     82 O14        -3.8780   -3.9070   -4.6820 O.3       1 OCB1        0.0000
     83 O15        -6.2130    0.1270   -4.2830 O.3       1 OCB1        0.0000
     84 O16         7.1360    0.6510   -2.6840 O.3       1 OCB1        0.0000
     85 O17         5.1450    4.9000   -2.5800 O.3       1 OCB1        0.0000
     86 O18        -4.0920    4.4800   -3.8390 O.3       1 OCB1        0.0000
     87 O19         0.4400    5.4640   -3.6850 O.3       1 OCB1        0.0000
     88 C69        -2.9430   -4.8310   -4.2700 C.ar      1 OCB1        0.0000
     89 C70        -1.1410   -6.8410   -3.5910 C.ar      1 OCB1        0.0000
     90 C71        -1.5840   -4.6500   -4.5760 C.ar      1 OCB1        0.0000
     91 C72        -3.4020   -6.0210   -3.6920 C.ar      1 OCB1        0.0000
     92 C73        -2.5120   -7.0600   -3.3760 C.ar      1 OCB1        0.0000
     93 C74        -0.6830   -5.6460   -4.1650 C.ar      1 OCB1        0.0000
     94 O20         0.6610   -5.5370   -4.4500 O.3       1 OCB1        0.0000
     95 C75         6.9280   -0.7120   -2.5890 C.ar      1 OCB1        0.0000
     96 C76         6.7680   -3.4900   -2.4770 C.ar      1 OCB1        0.0000
     97 C77         7.9300   -1.4500   -1.9460 C.ar      1 OCB1        0.0000
     98 C78         5.8540   -1.3530   -3.2330 C.ar      1 OCB1        0.0000
     99 C79         5.7650   -2.7520   -3.1210 C.ar      1 OCB1        0.0000
    100 C80         7.8820   -2.8530   -1.9030 C.ar      1 OCB1        0.0000
    101 C81        -6.1670    1.4370   -3.8530 C.ar      1 OCB1        0.0000
    102 C82        -6.3090    4.1130   -3.1050 C.ar      1 OCB1        0.0000
    103 C83        -7.3650    1.9690   -3.3560 C.ar      1 OCB1        0.0000
    104 C84        -5.0380    2.2530   -4.0540 C.ar      1 OCB1        0.0000
    105 C85        -5.1100    3.5830   -3.6050 C.ar      1 OCB1        0.0000
    106 C86        -7.4660    3.3240   -3.0060 C.ar      1 OCB1        0.0000
    107 C87        -8.7990    3.9320   -2.6140 C.2       1 OCB1        0.0000
    108 O21        -9.8120    3.1620   -2.5950 O.co2     1 OCB1        0.0000
    109 C88         3.0920    9.3090   -2.2010 C.2       1 OCB1        0.0000
    110 O22         4.2590    9.7520   -1.9480 O.co2     1 OCB1        0.0000
    111 C89         9.0400   -3.6530   -1.3350 C.2       1 OCB1        0.0000
    112 O23         9.0150   -4.9160   -1.4940 O.co2     1 OCB1        0.0000
    113 O24        -4.4060    4.2350    7.6160 O.co2     1 OCB1        0.0000
    114 O25        -6.8530   -2.3320    6.6440 O.co2     1 OCB1        0.0000
    115 O26         0.6790   -7.2420    4.1490 O.co2     1 OCB1        0.0000
    116 C90        -3.0310   -8.4050   -2.9020 C.2       1 OCB1        0.0000
    117 O27        -2.1800   -9.3470   -2.7750 O.co2     1 OCB1        0.0000
    118 O28         2.0640   10.0360   -2.3850 O.co2     1 OCB1        0.0000
    119 O29        -8.8330    5.1890   -2.4070 O.co2     1 OCB1        0.0000
    120 O30        -4.2870   -8.5320   -2.7620 O.co2     1 OCB1        0.0000
    121 O31        10.0050   -3.0020   -0.8160 O.co2     1 OCB1        0.0000
    122 O32         5.4410    3.3110    5.7530 O.co2     1 OCB1        0.0000
    123 C91         3.9410    5.5790   -2.5860 C.ar      1 OCB1        0.0000
    124 C92         1.7030    7.2490   -2.7540 C.ar      1 OCB1        0.0000
    125 C93         2.7300    5.0470   -3.0670 C.ar      1 OCB1        0.0000
    126 C94         4.0360    6.9440   -2.2660 C.ar      1 OCB1        0.0000
    127 C95         2.9330    7.8090   -2.3790 C.ar      1 OCB1        0.0000
    128 C96         1.6020    5.8900   -3.0830 C.ar      1 OCB1        0.0000
    129 C97         2.6160    3.6360   -3.5780 C.3       1 OCB1        0.0000
    130 C98         4.8230   -0.5750   -4.0000 C.3       1 OCB1        0.0000
    131 C99        -1.1150   -3.4240   -5.3030 C.3       1 OCB1        0.0000
    132 C100       -3.8110    1.7290   -4.7420 C.3       1 OCB1        0.0000
    133 H1          1.4730   -1.1980    4.5240 H         1 OCB1        0.0000
    134 H2          4.4060   -1.7220    0.5630 H         1 OCB1        0.0000
    135 H3          4.0020    1.5140    3.8630 H         1 OCB1        0.0000
    136 H4          2.9200    1.1990    0.5490 H         1 OCB1        0.0000
    137 H5          0.3230    1.4360    4.6560 H         1 OCB1        0.0000
    138 H6          1.7220    4.2130    0.8040 H         1 OCB1        0.0000
    139 H7         -2.1570    3.9340    3.4300 H         1 OCB1        0.0000
    140 H8         -1.2390    2.5370    0.3490 H         1 OCB1        0.0000
    141 H9          1.5370   -4.6010    2.9010 H         1 OCB1        0.0000
    142 H10        -4.4140    1.6830   -0.0210 H         1 OCB1        0.0000
    143 H11        -1.7010   -4.2420   -0.4520 H         1 OCB1        0.0000
    144 H12        -2.8520   -1.1410   -0.2590 H         1 OCB1        0.0000
    145 H13        -1.2020   -2.3370    4.0900 H         1 OCB1        0.0000
    146 H14        -2.4050    0.3000    4.2950 H         1 OCB1        0.0000
    147 H15        -4.6210   -2.2050    2.6030 H         1 OCB1        0.0000
    148 H16         1.2400   -2.6200    0.0380 H         1 OCB1        0.0000
    149 H17        -1.6080    1.8970    5.6280 H         1 OCB1        0.0000
    150 H18        -1.1580    3.5890    5.6390 H         1 OCB1        0.0000
    151 H19        -3.6950    4.0720    5.1990 H         1 OCB1        0.0000
    152 H20        -3.9550    2.3900    5.6680 H         1 OCB1        0.0000
    153 H21         3.6100    0.0980    5.8810 H         1 OCB1        0.0000
    154 H22         1.9550    0.6730    5.9190 H         1 OCB1        0.0000
    155 H23         2.9760    3.0950    5.8730 H         1 OCB1        0.0000
    156 H24         3.0490    2.1500    7.3500 H         1 OCB1        0.0000
    157 H25         1.9510   -4.0170    5.2370 H         1 OCB1        0.0000
    158 H26         0.4840   -3.0640    5.2950 H         1 OCB1        0.0000
    159 H27        -0.2300   -5.0560    6.1990 H         1 OCB1        0.0000
    160 H28        -0.7740   -5.2590    4.5490 H         1 OCB1        0.0000
    161 H29        -3.8310   -3.1470    4.7350 H         1 OCB1        0.0000
    162 H30        -3.0650   -1.6300    5.1530 H         1 OCB1        0.0000
    163 H31        -5.1960   -0.4610    5.2080 H         1 OCB1        0.0000
    164 H32        -6.0240   -1.7980    4.4060 H         1 OCB1        0.0000
    165 H33         6.6880    3.0560   -3.4220 H         1 OCB1        0.0000
    166 H34         3.8850    4.0490   -0.3270 H         1 OCB1        0.0000
    167 H35         5.6990    0.1370   -0.4340 H         1 OCB1        0.0000
    168 H36         2.9710   -4.6650   -5.0640 H         1 OCB1        0.0000
    169 H37         0.1910   -4.9810   -1.8070 H         1 OCB1        0.0000
    170 H38         3.9970   -3.0610   -1.2170 H         1 OCB1        0.0000
    171 H39        -5.3200   -1.9640   -5.4220 H         1 OCB1        0.0000
    172 H40        -5.4510    0.1100   -1.6650 H         1 OCB1        0.0000
    173 H41        -3.2640   -3.5810   -2.0180 H         1 OCB1        0.0000
    174 H42        -1.8530    5.2750   -4.6640 H         1 OCB1        0.0000
    175 H43        -3.8510    3.6920   -1.2180 H         1 OCB1        0.0000
    176 H44         0.3580    4.6580   -1.0390 H         1 OCB1        0.0000
    177 H45        -0.4300   -7.6230   -3.3260 H         1 OCB1        0.0000
    178 H46        -4.4670   -6.1620   -3.5130 H         1 OCB1        0.0000
    179 H47         6.7090   -4.5780   -2.4520 H         1 OCB1        0.0000
    180 H48         8.7760   -0.9350   -1.4940 H         1 OCB1        0.0000
    181 H49        -6.3600    5.1660   -2.8330 H         1 OCB1        0.0000
    182 H50        -8.2440    1.3320   -3.2710 H         1 OCB1        0.0000
    183 H51         0.8340    7.8970   -2.8580 H         1 OCB1        0.0000
    184 H52         4.9990    7.3590   -1.9690 H         1 OCB1        0.0000
    185 H53         3.5370    3.3170   -4.0730 H         1 OCB1        0.0000
    186 H54         2.3810    2.9520   -2.7580 H         1 OCB1        0.0000
    187 H55         1.8320    3.5430   -4.3370 H         1 OCB1        0.0000
    188 H56         4.0100   -0.2680   -3.3350 H         1 OCB1        0.0000
    189 H57         5.2600    0.3130   -4.4670 H         1 OCB1        0.0000
    190 H58         4.4010   -1.1660   -4.8200 H         1 OCB1        0.0000
    191 H59        -1.8590   -3.0930   -6.0350 H         1 OCB1        0.0000
    192 H60        -0.9230   -2.6120   -4.5960 H         1 OCB1        0.0000
    193 H61        -0.2010   -3.6210   -5.8740 H         1 OCB1        0.0000
    194 H62        -3.1240    1.2860   -4.0150 H         1 OCB1        0.0000
    195 H63        -4.0700    0.9770   -5.4950 H         1 OCB1        0.0000
    196 H64        -3.2890    2.5210   -5.2890 H         1 OCB1        0.0000
@<TRIPOS>BOND
     1    1    3 ar
     2    1    4 ar
     3    4    5 ar
     4    2    5 ar
     5    3    6 ar
     6    2    6 ar
     7    2    7 1
     8    6    8 1
     9    7    9 1
    10    9   10 1
    11   10   11 1
    12   11   12 ar
    13    8   12 1
    14   12   13 ar
    15   11   14 ar
    16   13   15 ar
    17   15   16 ar
    18   14   16 ar
    19   16   17 1
    20   15   18 1
    21   18   19 1
    22   19   20 ar
    23   17   21 1
    24   21   22 1
    25   20   22 1
    26    4   23 1
    27    1   24 1
    28   24   25 1
    29   26   27 1
    30   25   27 ar
    31   20   28 ar
    32   28   29 ar
    33   27   30 ar
    34   30   31 ar
    35   29   32 1
    36   31   33 1
    37   32   34 1
    38   33   34 1
    39   25   35 ar
    40   35   36 ar
    41   31   36 ar
    42   19   37 ar
    43   36   38 1
    44   38   39 1
    45   37   39 ar
    46   29   39 ar
    47   26   40 1
    48   23   40 1
    49   18   41 1
    50   41   42 1
    51   42   43 1
    52   43   44 2
    53    8   45 1
    54   45   46 1
    55   46   47 1
    56   47   48 1
    57   24   49 1
    58   49   50 1
    59   50   51 1
    60   51   52 1
    61   38   53 1
    62   53   54 1
    63   54   55 1
    64   55   56 2
    65    9   57 1
    66   57   59 ar
    67   57   60 ar
    68   60   61 ar
    69   58   61 ar
    70   59   62 ar
    71   58   62 ar
    72   40   63 1
    73   63   65 ar
    74   63   66 ar
    75   64   67 ar
    76   66   67 ar
    77   65   68 ar
    78   64   68 ar
    79   34   69 1
    80   69   71 ar
    81   69   72 ar
    82   70   73 ar
    83   72   73 ar
    84   71   74 ar
    85   70   74 ar
    86   21   75 1
    87   75   77 ar
    88   75   78 ar
    89   78   79 ar
    90   76   79 ar
    91   77   80 ar
    92   76   80 ar
    93   67   81 1
    94   73   82 1
    95   74   83 1
    96   61   84 1
    97   62   85 1
    98   80   86 1
    99   79   87 1
   100   82   88 1
   101   88   90 ar
   102   88   91 ar
   103   91   92 ar
   104   89   92 ar
   105   90   93 ar
   106   89   93 ar
   107   93   94 1
   108   68   94 1
   109   84   95 1
   110   95   97 ar
   111   95   98 ar
   112   98   99 ar
   113   96   99 ar
   114   81   99 1
   115   97  100 ar
   116   96  100 ar
   117   83  101 1
   118  101  103 ar
   119  101  104 ar
   120  104  105 ar
   121  102  105 ar
   122   86  105 1
   123  103  106 ar
   124  102  106 ar
   125  106  107 1
   126  107  108 2
   127  109  110 1
   128  100  111 1
   129  111  112 2
   130   43  113 1
   131   55  114 1
   132   51  115 2
   133   92  116 1
   134  116  117 1
   135  109  118 2
   136  107  119 1
   137  116  120 2
   138  111  121 1
   139   47  122 2
   140   85  123 1
   141  123  125 ar
   142  123  126 ar
   143  126  127 ar
   144  124  127 ar
   145  109  127 1
   146  125  128 ar
   147  124  128 ar
   148   87  128 1
   149  125  129 1
   150   98  130 1
   151   90  131 1
   152  104  132 1
   153    3  133 1
   154    5  134 1
   155    8  135 1
   156    9  136 1
   157   13  137 1
   158   14  138 1
   159   18  139 1
   160   21  140 1
   161   24  141 1
   162   28  142 1
   163   30  143 1
   164   34  144 1
   165   35  145 1
   166   37  146 1
   167   38  147 1
   168   40  148 1
   169   41  149 1
   170   41  150 1
   171   42  151 1
   172   42  152 1
   173   45  153 1
   174   45  154 1
   175   46  155 1
   176   46  156 1
   177   49  157 1
   178   49  158 1
   179   50  159 1
   180   50  160 1
   181   53  161 1
   182   53  162 1
   183   54  163 1
   184   54  164 1
   185   58  165 1
   186   59  166 1
   187   60  167 1
   188   64  168 1
   189   65  169 1
   190   66  170 1
   191   70  171 1
   192   71  172 1
   193   72  173 1
   194   76  174 1
   195   77  175 1
   196   78  176 1
   197   89  177 1
   198   91  178 1
   199   96  179 1
   200   97  180 1
   201  102  181 1
   202  103  182 1
   203  124  183 1
   204  126  184 1
   205  129  185 1
   206  129  186 1
   207  129  187 1
   208  130  188 1
   209  130  189 1
   210  130  190 1
   211  131  191 1
   212  131  192 1
   213  131  193 1
   214  132  194 1
   215  132  195 1
   216  132  196 1
