

verachem
  9  9  0  0  0  0  0  0  0  0999 V2000
    0.7636   -1.6035    0.0000 C   0  0  0  0  0  0  0  0  0  0  0  0
    0.7636   -0.6035    0.0000 C   0  0  0  0  0  0  0  0  0  0  0  0
   -0.9684   -1.6035    0.0000 C   0  0  0  0  0  0  0  0  0  0  0  0
   -0.1024   -2.1034    0.0000 C   0  0  0  0  0  0  0  0  0  0  0  0
   -0.9684   -0.6035    0.0000 C   0  0  0  0  0  0  0  0  0  0  0  0
   -0.1024   -0.1034    0.0000 C   0  0  0  0  0  0  0  0  0  0  0  0
   -0.1749    1.0944    0.0000 C   0  0  0  0  0  0  0  0  0  0  0  0
   -1.0253    1.9411    0.0000 O   0  0  0  0  0  0  0  0  0  0  0  0
    0.7829    1.8173    0.0000 O   0  5  0  0  0  0  0  0  0  0  0  0
  2  6  2  0  0  0  0
  1  4  2  0  0  0  0
  7  8  2  0  0  0  0
  3  5  2  0  0  0  0
  1  2  1  0  0  0  0
  7  9  1  0  0  0  0
  5  6  1  0  0  0  0
  3  4  1  0  0  0  0
  6  7  1  0  0  0  0
M  END
$$$$
