

verachem
 10 10  0  0  0  0  0  0  0  0999 V2000
    0.7577   -1.3043    0.0000 C   0  0  0  0  0  0  0  0  0  0  0  0
    0.7577   -0.3043    0.0000 C   0  0  0  0  0  0  0  0  0  0  0  0
   -0.9743   -1.3043    0.0000 C   0  0  0  0  0  0  0  0  0  0  0  0
   -0.1083   -1.8042    0.0000 C   0  0  0  0  0  0  0  0  0  0  0  0
   -0.9743   -0.3043    0.0000 C   0  0  0  0  0  0  0  0  0  0  0  0
   -0.1083    0.1958    0.0000 C   0  0  0  0  0  0  0  0  0  0  0  0
   -0.1808    1.3936    0.0000 C   0  0  0  0  0  0  0  0  0  0  0  0
   -1.0312    2.2403    0.0000 O   0  0  0  0  0  0  0  0  0  0  0  0
    0.0587   -2.9925    0.0000 C   0  0  0  0  0  0  0  0  0  0  0  0
    0.8305    2.0395    0.0000 O   0  5  0  0  0  0  0  0  0  0  0  0
  7  8  2  0  0  0  0
  6  7  1  0  0  0  0
  1  4  2  0  0  0  0
  3  4  1  0  0  0  0
  5  6  1  0  0  0  0
  3  5  2  0  0  0  0
  7 10  1  0  0  0  0
  4  9  1  0  0  0  0
  2  6  2  0  0  0  0
  1  2  1  0  0  0  0
M  END
$$$$
