

verachem
 11 11  0  0  0  0  0  0  0  0999 V2000
    0.8220   -0.9827    0.0000 C   0  0  0  0  0  0  0  0  0  0  0  0
    0.8220    0.0173    0.0000 C   0  0  0  0  0  0  0  0  0  0  0  0
   -0.9100   -0.9827    0.0000 C   0  0  0  0  0  0  0  0  0  0  0  0
   -0.0440   -1.4826    0.0000 C   0  0  0  0  0  0  0  0  0  0  0  0
   -0.9100    0.0173    0.0000 C   0  0  0  0  0  0  0  0  0  0  0  0
   -0.0440    0.5174    0.0000 C   0  0  0  0  0  0  0  0  0  0  0  0
   -0.1165    1.7152    0.0000 C   0  0  0  0  0  0  0  0  0  0  0  0
   -0.9669    2.5619    0.0000 O   0  0  0  0  0  0  0  0  0  0  0  0
    0.8413    2.4381    0.0000 O   0  5  0  0  0  0  0  0  0  0  0  0
    0.1230   -2.6709    0.0000 C   0  0  0  0  0  0  0  0  0  0  0  0
   -0.7066   -3.5379    0.0000 C   0  0  0  0  0  0  0  0  0  0  0  0
  7  8  2  0  0  0  0
  1  4  2  0  0  0  0
  2  6  2  0  0  0  0
 10 11  1  0  0  0  0
  1  2  1  0  0  0  0
  3  5  2  0  0  0  0
  6  7  1  0  0  0  0
  3  4  1  0  0  0  0
  7  9  1  0  0  0  0
  4 10  1  0  0  0  0
  5  6  1  0  0  0  0
M  END
$$$$
