o3_mol_1

Vconf v2.1
 20 20  0  0  0  0  0  0  0  0999 V2000
    2.0180    0.0390    0.5200 C   0  0  0  0  0  0  0  0  0  0  0
    2.0770    1.4370    0.6460 C   0  0  0  0  0  0  0  0  0  0  0
   -0.3720    0.1760    0.1240 C   0  0  0  0  0  0  0  0  0  0  0
    0.7930   -0.6050    0.2610 C   0  0  0  0  0  0  0  0  0  0  0
   -0.3130    1.5740    0.2510 C   0  0  0  0  0  0  0  0  0  0  0
    0.9130    2.2270    0.5140 C   0  0  0  0  0  0  0  0  0  0  0
    0.9720    3.6340    0.6420 C   0  0  0  0  0  0  0  0  0  0  0
    2.0510    4.2250    0.8800 O   0  0  0  0  0  0  0  0  0  0  0
   -0.0530    4.3480    0.5230 O   0  5  0  0  0  0  0  0  0  0  0
    0.7250   -2.0730    0.1210 C   0  0  0  0  0  0  0  0  0  0  0
   -0.1080   -2.7240    1.2380 C   0  0  0  0  0  0  0  0  0  0  0
    2.8730   -0.5100    0.6180 H   0  0  0  0  0  0  0  0  0  0  0
    2.9790    1.8770    0.8350 H   0  0  0  0  0  0  0  0  0  0  0
   -1.2670   -0.2740   -0.0690 H   0  0  0  0  0  0  0  0  0  0  0
   -1.1730    2.1150    0.1480 H   0  0  0  0  0  0  0  0  0  0  0
    0.2800   -2.3210   -0.8440 H   0  0  0  0  0  0  0  0  0  0  0
    1.7270   -2.5050    0.1530 H   0  0  0  0  0  0  0  0  0  0  0
   -0.0960   -3.8060    1.1070 H   0  0  0  0  0  0  0  0  0  0  0
    0.3180   -2.4800    2.2120 H   0  0  0  0  0  0  0  0  0  0  0
   -1.1400   -2.3740    1.1950 H   0  0  0  0  0  0  0  0  0  0  0
  1  2  1  0  0  0  0
  1  4  2  0  0  0  0
  1 12  1  0  0  0  0
  2  6  2  0  0  0  0
  2 13  1  0  0  0  0
  3  4  1  0  0  0  0
  3  5  2  0  0  0  0
  3 14  1  0  0  0  0
  4 10  1  0  0  0  0
  5  6  1  0  0  0  0
  5 15  1  0  0  0  0
  6  7  1  0  0  0  0
  7  8  2  0  0  0  0
  7  9  1  0  0  0  0
 10 11  1  0  0  0  0
 10 16  1  0  0  0  0
 10 17  1  0  0  0  0
 11 18  1  0  0  0  0
 11 19  1  0  0  0  0
 11 20  1  0  0  0  0
M  END
> <Energy>
16.517

> <Ring Energy>
15.453

$$$$
o3_mol_1

Vconf v2.1
 20 20  0  0  0  0  0  0  0  0999 V2000
    1.9955    0.0504    0.8048 C   0  0  0  0  0  0  0  0  0  0  0
    2.0823    1.4343    0.5788 C   0  0  0  0  0  0  0  0  0  0  0
   -0.4261    0.2034    0.8087 C   0  0  0  0  0  0  0  0  0  0  0
    0.7410   -0.5786    0.9188 C   0  0  0  0  0  0  0  0  0  0  0
   -0.3391    1.5873    0.5818 C   0  0  0  0  0  0  0  0  0  0  0
    0.9170    2.2250    0.4633 C   0  0  0  0  0  0  0  0  0  0  0
    1.0042    3.6177    0.2346 C   0  0  0  0  0  0  0  0  0  0  0
    2.1109    4.1946    0.1226 O   0  0  0  0  0  0  0  0  0  0  0
   -0.0223    4.3324    0.1341 O   0  5  0  0  0  0  0  0  0  0  0
    0.6426   -2.0312    1.1627 C   0  0  0  0  0  0  0  0  0  0  0
   -0.0089   -2.7743   -0.0158 C   0  0  0  0  0  0  0  0  0  0  0
    2.8518   -0.4993    0.8861 H   0  0  0  0  0  0  0  0  0  0  0
    3.0055    1.8635    0.4992 H   0  0  0  0  0  0  0  0  0  0  0
   -1.3431   -0.2354    0.8941 H   0  0  0  0  0  0  0  0  0  0  0
   -1.2012    2.1293    0.5052 H   0  0  0  0  0  0  0  0  0  0  0
    0.0502   -2.2045    2.0626 H   0  0  0  0  0  0  0  0  0  0  0
    1.6345   -2.4581    1.3228 H   0  0  0  0  0  0  0  0  0  0  0
   -0.0244   -3.8423    0.2011 H   0  0  0  0  0  0  0  0  0  0  0
    0.5662   -2.6058   -0.9272 H   0  0  0  0  0  0  0  0  0  0  0
   -1.0326   -2.4284   -0.1632 H   0  0  0  0  0  0  0  0  0  0  0
  1  2  1  0  0  0  0
  1  4  2  0  0  0  0
  1 12  1  0  0  0  0
  2  6  2  0  0  0  0
  2 13  1  0  0  0  0
  3  4  1  0  0  0  0
  3  5  2  0  0  0  0
  3 14  1  0  0  0  0
  4 10  1  0  0  0  0
  5  6  1  0  0  0  0
  5 15  1  0  0  0  0
  6  7  1  0  0  0  0
  7  8  2  0  0  0  0
  7  9  1  0  0  0  0
 10 11  1  0  0  0  0
 10 16  1  0  0  0  0
 10 17  1  0  0  0  0
 11 18  1  0  0  0  0
 11 19  1  0  0  0  0
 11 20  1  0  0  0  0
M  END
> <Energy>
16.517

> <Ring Energy>
15.453

$$$$
o3_mol_1

Vconf v2.1
 20 20  0  0  0  0  0  0  0  0999 V2000
    1.7179   -0.0432    0.9000 C   0  0  0  0  0  0  0  0  0  0  0
    1.9746    1.3155    0.6505 C   0  0  0  0  0  0  0  0  0  0  0
   -0.6641    0.3677    0.6917 C   0  0  0  0  0  0  0  0  0  0  0
    0.3963   -0.5304    0.9198 C   0  0  0  0  0  0  0  0  0  0  0
   -0.4082    1.7269    0.4433 C   0  0  0  0  0  0  0  0  0  0  0
    0.9156    2.2227    0.4182 C   0  0  0  0  0  0  0  0  0  0  0
    1.1730    3.5909    0.1656 C   0  0  0  0  0  0  0  0  0  0  0
    2.3406    4.0426    0.1388 O   0  0  0  0  0  0  0  0  0  0  0
    0.2423    4.4065   -0.0411 O   0  5  0  0  0  0  0  0  0  0  0
    0.1330   -1.9575    1.1875 C   0  0  0  0  0  0  0  0  0  0  0
    0.6814   -2.8662    0.0749 C   0  0  0  0  0  0  0  0  0  0  0
    2.4983   -0.6795    1.0676 H   0  0  0  0  0  0  0  0  0  0  0
    2.9421    1.6417    0.6404 H   0  0  0  0  0  0  0  0  0  0  0
   -1.6280    0.0340    0.7055 H   0  0  0  0  0  0  0  0  0  0  0
   -1.1960    2.3557    0.2804 H   0  0  0  0  0  0  0  0  0  0  0
    0.5969   -2.2370    2.1346 H   0  0  0  0  0  0  0  0  0  0  0
   -0.9405   -2.1379    1.2700 H   0  0  0  0  0  0  0  0  0  0  0
    1.7660   -2.7743    0.0080 H   0  0  0  0  0  0  0  0  0  0  0
    0.4287   -3.9026    0.3026 H   0  0  0  0  0  0  0  0  0  0  0
    0.2342   -2.5957   -0.8832 H   0  0  0  0  0  0  0  0  0  0  0
  1  2  1  0  0  0  0
  1  4  2  0  0  0  0
  1 12  1  0  0  0  0
  2  6  2  0  0  0  0
  2 13  1  0  0  0  0
  3  4  1  0  0  0  0
  3  5  2  0  0  0  0
  3 14  1  0  0  0  0
  4 10  1  0  0  0  0
  5  6  1  0  0  0  0
  5 15  1  0  0  0  0
  6  7  1  0  0  0  0
  7  8  2  0  0  0  0
  7  9  1  0  0  0  0
 10 11  1  0  0  0  0
 10 16  1  0  0  0  0
 10 17  1  0  0  0  0
 11 18  1  0  0  0  0
 11 19  1  0  0  0  0
 11 20  1  0  0  0  0
M  END
> <Energy>
16.517

> <Ring Energy>
15.453

$$$$
o3_mol_1

Vconf v2.1
 20 20  0  0  0  0  0  0  0  0999 V2000
    1.7647   -0.0591    0.6711 C   0  0  0  0  0  0  0  0  0  0  0
    1.9400    1.3272    0.8190 C   0  0  0  0  0  0  0  0  0  0  0
   -0.4968    0.3111   -0.1256 C   0  0  0  0  0  0  0  0  0  0  0
    0.5436   -0.5802    0.2004 C   0  0  0  0  0  0  0  0  0  0  0
   -0.3217    1.6976    0.0209 C   0  0  0  0  0  0  0  0  0  0  0
    0.8997    2.2281    0.4961 C   0  0  0  0  0  0  0  0  0  0  0
    1.0747    3.6242    0.6458 C   0  0  0  0  0  0  0  0  0  0  0
    2.1505    4.1069    1.0673 O   0  0  0  0  0  0  0  0  0  0  0
    0.1598    4.4344    0.3619 O   0  5  0  0  0  0  0  0  0  0  0
    0.3675   -2.0368    0.0425 C   0  0  0  0  0  0  0  0  0  0  0
    0.4120   -2.7751    1.3905 C   0  0  0  0  0  0  0  0  0  0  0
    2.5310   -0.6905    0.9080 H   0  0  0  0  0  0  0  0  0  0  0
    2.8350    1.6780    1.1636 H   0  0  0  0  0  0  0  0  0  0  0
   -1.3870   -0.0475   -0.4712 H   0  0  0  0  0  0  0  0  0  0  0
   -1.0931    2.3209   -0.2222 H   0  0  0  0  0  0  0  0  0  0  0
    1.1572   -2.4265   -0.6015 H   0  0  0  0  0  0  0  0  0  0  0
   -0.5926   -2.2555   -0.4289 H   0  0  0  0  0  0  0  0  0  0  0
    1.3860   -2.6458    1.8636 H   0  0  0  0  0  0  0  0  0  0  0
    0.2405   -3.8389    1.2214 H   0  0  0  0  0  0  0  0  0  0  0
   -0.3670   -2.3924    2.0522 H   0  0  0  0  0  0  0  0  0  0  0
  1  2  1  0  0  0  0
  1  4  2  0  0  0  0
  1 12  1  0  0  0  0
  2  6  2  0  0  0  0
  2 13  1  0  0  0  0
  3  4  1  0  0  0  0
  3  5  2  0  0  0  0
  3 14  1  0  0  0  0
  4 10  1  0  0  0  0
  5  6  1  0  0  0  0
  5 15  1  0  0  0  0
  6  7  1  0  0  0  0
  7  8  2  0  0  0  0
  7  9  1  0  0  0  0
 10 11  1  0  0  0  0
 10 16  1  0  0  0  0
 10 17  1  0  0  0  0
 11 18  1  0  0  0  0
 11 19  1  0  0  0  0
 11 20  1  0  0  0  0
M  END
> <Energy>
16.517

> <Ring Energy>
15.453

$$$$
o3_mol_1

Vconf v2.1
 20 20  0  0  0  0  0  0  0  0999 V2000
    1.4723   -0.0689    1.0656 C   0  0  0  0  0  0  0  0  0  0  0
    1.7928    1.2983    1.0866 C   0  0  0  0  0  0  0  0  0  0  0
   -0.5319    0.4209   -0.2057 C   0  0  0  0  0  0  0  0  0  0  0
    0.3048   -0.5253    0.4177 C   0  0  0  0  0  0  0  0  0  0  0
   -0.2125    1.7896   -0.1845 C   0  0  0  0  0  0  0  0  0  0  0
    0.9553    2.2499    0.4623 C   0  0  0  0  0  0  0  0  0  0  0
    1.2788    3.6268    0.4833 C   0  0  0  0  0  0  0  0  0  0  0
    0.5516    4.4792   -0.0761 O   0  0  0  0  0  0  0  0  0  0  0
    2.3092    4.0498    1.0613 O   0  5  0  0  0  0  0  0  0  0  0
   -0.0903   -1.9515    0.3587 C   0  0  0  0  0  0  0  0  0  0  0
    0.8570   -2.9457    1.0543 C   0  0  0  0  0  0  0  0  0  0  0
    2.0984   -0.7289    1.5262 H   0  0  0  0  0  0  0  0  0  0  0
    2.6443    1.5976    1.5637 H   0  0  0  0  0  0  0  0  0  0  0
   -1.3817    0.1131   -0.6804 H   0  0  0  0  0  0  0  0  0  0  0
   -0.8402    2.4498   -0.6461 H   0  0  0  0  0  0  0  0  0  0  0
   -1.0747   -2.0577    0.8165 H   0  0  0  0  0  0  0  0  0  0  0
   -0.1671   -2.2467   -0.6883 H   0  0  0  0  0  0  0  0  0  0  0
    1.8479   -2.9003    0.6021 H   0  0  0  0  0  0  0  0  0  0  0
    0.9284   -2.7147    2.1189 H   0  0  0  0  0  0  0  0  0  0  0
    0.4617   -3.9554    0.9387 H   0  0  0  0  0  0  0  0  0  0  0
  1  2  1  0  0  0  0
  1  4  2  0  0  0  0
  1 12  1  0  0  0  0
  2  6  2  0  0  0  0
  2 13  1  0  0  0  0
  3  4  1  0  0  0  0
  3  5  2  0  0  0  0
  3 14  1  0  0  0  0
  4 10  1  0  0  0  0
  5  6  1  0  0  0  0
  5 15  1  0  0  0  0
  6  7  1  0  0  0  0
  7  8  2  0  0  0  0
  7  9  1  0  0  0  0
 10 11  1  0  0  0  0
 10 16  1  0  0  0  0
 10 17  1  0  0  0  0
 11 18  1  0  0  0  0
 11 19  1  0  0  0  0
 11 20  1  0  0  0  0
M  END
> <Energy>
17.882

> <Ring Energy>
15.453

$$$$
o3_mol_1

Vconf v2.1
 20 20  0  0  0  0  0  0  0  0999 V2000
    2.0790    0.1031    0.2595 C   0  0  0  0  0  0  0  0  0  0  0
    2.1041    1.5076    0.2513 C   0  0  0  0  0  0  0  0  0  0  0
   -0.2933    0.1451    0.7498 C   0  0  0  0  0  0  0  0  0  0  0
    0.8816   -0.5961    0.5087 C   0  0  0  0  0  0  0  0  0  0  0
   -0.2690    1.5506    0.7427 C   0  0  0  0  0  0  0  0  0  0  0
    0.9301    2.2541    0.4937 C   0  0  0  0  0  0  0  0  0  0  0
    0.9543    3.6688    0.4888 C   0  0  0  0  0  0  0  0  0  0  0
   -0.0817    4.3424    0.6936 O   0  0  0  0  0  0  0  0  0  0  0
    2.0159    4.3055    0.2808 O   0  5  0  0  0  0  0  0  0  0  0
    0.9257   -2.0753    0.5056 C   0  0  0  0  0  0  0  0  0  0  0
   -0.4093   -2.7945    0.7767 C   0  0  0  0  0  0  0  0  0  0  0
    2.9418   -0.4130    0.0820 H   0  0  0  0  0  0  0  0  0  0  0
    2.9889    1.9846    0.0669 H   0  0  0  0  0  0  0  0  0  0  0
   -1.1763   -0.3307    0.9337 H   0  0  0  0  0  0  0  0  0  0  0
   -1.1372    2.0593    0.9212 H   0  0  0  0  0  0  0  0  0  0  0
    1.2874   -2.4087   -0.4680 H   0  0  0  0  0  0  0  0  0  0  0
    1.6370   -2.4025    1.2650 H   0  0  0  0  0  0  0  0  0  0  0
   -0.2446   -3.8716    0.7508 H   0  0  0  0  0  0  0  0  0  0  0
   -0.7907   -2.5187    1.7607 H   0  0  0  0  0  0  0  0  0  0  0
   -1.1397   -2.5301    0.0115 H   0  0  0  0  0  0  0  0  0  0  0
  1  2  1  0  0  0  0
  1  4  2  0  0  0  0
  1 12  1  0  0  0  0
  2  6  2  0  0  0  0
  2 13  1  0  0  0  0
  3  4  1  0  0  0  0
  3  5  2  0  0  0  0
  3 14  1  0  0  0  0
  4 10  1  0  0  0  0
  5  6  1  0  0  0  0
  5 15  1  0  0  0  0
  6  7  1  0  0  0  0
  7  8  2  0  0  0  0
  7  9  1  0  0  0  0
 10 11  1  0  0  0  0
 10 16  1  0  0  0  0
 10 17  1  0  0  0  0
 11 18  1  0  0  0  0
 11 19  1  0  0  0  0
 11 20  1  0  0  0  0
M  END
> <Energy>
17.883

> <Ring Energy>
15.453

$$$$
