o3

Vconf v2.1
 20 20  0  0  0  0  0  0  0  0999 V2000
    2.0180    0.0390    0.5200 C   0  0  0  0  0  0  0  0  0  0  0
    2.0770    1.4370    0.6460 C   0  0  0  0  0  0  0  0  0  0  0
   -0.3720    0.1760    0.1240 C   0  0  0  0  0  0  0  0  0  0  0
    0.7930   -0.6050    0.2610 C   0  0  0  0  0  0  0  0  0  0  0
   -0.3130    1.5740    0.2510 C   0  0  0  0  0  0  0  0  0  0  0
    0.9130    2.2270    0.5140 C   0  0  0  0  0  0  0  0  0  0  0
    0.9720    3.6340    0.6420 C   0  0  0  0  0  0  0  0  0  0  0
    2.0510    4.2250    0.8800 O   0  0  0  0  0  0  0  0  0  0  0
   -0.0530    4.3480    0.5230 O   0  5  0  0  0  0  0  0  0  0  0
    0.7250   -2.0730    0.1210 C   0  0  0  0  0  0  0  0  0  0  0
   -0.1080   -2.7240    1.2380 C   0  0  0  0  0  0  0  0  0  0  0
    2.8730   -0.5100    0.6180 H   0  0  0  0  0  0  0  0  0  0  0
    2.9790    1.8770    0.8350 H   0  0  0  0  0  0  0  0  0  0  0
   -1.2670   -0.2740   -0.0690 H   0  0  0  0  0  0  0  0  0  0  0
   -1.1730    2.1150    0.1480 H   0  0  0  0  0  0  0  0  0  0  0
    0.2800   -2.3210   -0.8440 H   0  0  0  0  0  0  0  0  0  0  0
    1.7270   -2.5050    0.1530 H   0  0  0  0  0  0  0  0  0  0  0
   -0.0960   -3.8060    1.1070 H   0  0  0  0  0  0  0  0  0  0  0
    0.3180   -2.4800    2.2120 H   0  0  0  0  0  0  0  0  0  0  0
   -1.1400   -2.3740    1.1950 H   0  0  0  0  0  0  0  0  0  0  0
  1  2  1  0  0  0  0
  1  4  2  0  0  0  0
  1 12  1  0  0  0  0
  2  6  2  0  0  0  0
  2 13  1  0  0  0  0
  3  4  1  0  0  0  0
  3  5  2  0  0  0  0
  3 14  1  0  0  0  0
  4 10  1  0  0  0  0
  5  6  1  0  0  0  0
  5 15  1  0  0  0  0
  6  7  1  0  0  0  0
  7  8  2  0  0  0  0
  7  9  1  0  0  0  0
 10 11  1  0  0  0  0
 10 16  1  0  0  0  0
 10 17  1  0  0  0  0
 11 18  1  0  0  0  0
 11 19  1  0  0  0  0
 11 20  1  0  0  0  0
M  END
> <Energy>
16.517

> <Ring Energy>
15.453

> <VC.Vconf.Error>
N/A

> <Time>
1.5288098

> <MaxConf>
N/A

$$$$
