

verachem
 10 10  0  0  0  0  0  0  0  0999 V2000
    0.5910   -1.4223    0.0000 C   0  0  0  0  0  0  0  0  0  0  0  0
    0.5910   -0.4223    0.0000 C   0  0  0  0  0  0  0  0  0  0  0  0
   -1.1410   -1.4223    0.0000 C   0  0  0  0  0  0  0  0  0  0  0  0
   -0.2750   -1.9222    0.0000 C   0  0  0  0  0  0  0  0  0  0  0  0
   -1.1410   -0.4223    0.0000 C   0  0  0  0  0  0  0  0  0  0  0  0
   -0.2750    0.0778    0.0000 C   0  0  0  0  0  0  0  0  0  0  0  0
   -0.3475    1.2756    0.0000 C   0  0  0  0  0  0  0  0  0  0  0  0
   -1.1979    2.1223    0.0000 O   0  0  0  0  0  0  0  0  0  0  0  0
    0.6103    1.9985    0.0000 O   0  5  0  0  0  0  0  0  0  0  0  0
    1.7259   -1.8120    0.0000 Cl  0  0  0  0  0  0  0  0  0  0  0  0
  1  2  1  0  0  0  0
  7  8  2  0  0  0  0
  7  9  1  0  0  0  0
  5  6  1  0  0  0  0
  6  7  1  0  0  0  0
  2  6  2  0  0  0  0
  3  4  1  0  0  0  0
  1 10  1  0  0  0  0
  1  4  2  0  0  0  0
  3  5  2  0  0  0  0
M  END
$$$$
