o6_mol_1

Vconf v2.1
 20 20  0  0  0  0  0  0  0  0999 V2000
    1.0310   -1.5240   -0.1600 C   0  0  0  0  0  0  0  0  0  0  0
    0.8630   -0.0150    0.0790 C   0  0  0  0  0  0  0  0  0  0  0
   -1.4690   -1.7710   -0.3870 C   0  0  0  0  0  0  0  0  0  0  0
   -0.2100   -2.2870    0.3270 C   0  0  0  0  0  0  0  0  0  0  0
   -1.6410   -0.2630   -0.1450 C   0  0  0  0  0  0  0  0  0  0  0
   -0.3990    0.5060   -0.6390 C   0  0  0  0  0  0  0  0  0  0  0
   -0.5620    1.9550   -0.4280 C   0  0  0  0  0  0  0  0  0  0  0
   -0.5540    2.7370   -1.4030 O   0  0  0  0  0  0  0  0  0  0  0
   -0.7080    2.4190    0.7260 O   0  5  0  0  0  0  0  0  0  0  0
    1.1760   -1.7080   -1.2250 H   0  0  0  0  0  0  0  0  0  0  0
    1.9070   -1.8780    0.3840 H   0  0  0  0  0  0  0  0  0  0  0
    1.7430    0.5030   -0.3050 H   0  0  0  0  0  0  0  0  0  0  0
    0.7820    0.1690    1.1520 H   0  0  0  0  0  0  0  0  0  0  0
   -2.3420   -2.2990   -0.0030 H   0  0  0  0  0  0  0  0  0  0  0
   -1.3820   -1.9590   -1.4580 H   0  0  0  0  0  0  0  0  0  0  0
   -0.0850   -3.3490    0.1140 H   0  0  0  0  0  0  0  0  0  0  0
   -0.3210   -2.1500    1.4030 H   0  0  0  0  0  0  0  0  0  0  0
   -2.5250    0.0810   -0.6840 H   0  0  0  0  0  0  0  0  0  0  0
   -1.7860   -0.0880    0.9230 H   0  0  0  0  0  0  0  0  0  0  0
   -0.2860    0.3240   -1.7090 H   0  0  0  0  0  0  0  0  0  0  0
  1  2  1  0  0  0  0
  1  4  1  0  0  0  0
  1 10  1  0  0  0  0
  1 11  1  0  0  0  0
  2  6  1  0  0  0  0
  2 12  1  0  0  0  0
  2 13  1  0  0  0  0
  3  4  1  0  0  0  0
  3  5  1  0  0  0  0
  3 14  1  0  0  0  0
  3 15  1  0  0  0  0
  4 16  1  0  0  0  0
  4 17  1  0  0  0  0
  5  6  1  0  0  0  0
  5 18  1  0  0  0  0
  5 19  1  0  0  0  0
  6  7  1  0  0  0  0
  6 20  1  0  0  0  0
  7  8  2  0  0  0  0
  7  9  1  0  0  0  0
M  END
> <Energy>
2.1153

> <Ring Energy>
None

$$$$
o6_mol_1

Vconf v2.1
 20 20  0  0  0  0  0  0  0  0999 V2000
    0.9843   -1.4735    0.3011 C   0  0  0  0  0  0  0  0  0  0  0
    0.8998   -0.0547   -0.2840 C   0  0  0  0  0  0  0  0  0  0  0
   -1.5159   -1.7204    0.0755 C   0  0  0  0  0  0  0  0  0  0  0
   -0.1518   -2.3499   -0.2473 C   0  0  0  0  0  0  0  0  0  0  0
   -1.6037   -0.3033   -0.5130 C   0  0  0  0  0  0  0  0  0  0  0
   -0.4679    0.5804    0.0410 C   0  0  0  0  0  0  0  0  0  0  0
   -0.5544    1.9467   -0.5035 C   0  0  0  0  0  0  0  0  0  0  0
   -0.7228    2.9194    0.2632 O   0  0  0  0  0  0  0  0  0  0  0
   -0.4586    2.1495   -1.7356 O   0  5  0  0  0  0  0  0  0  0  0
    0.9112   -1.4220    1.3879 H   0  0  0  0  0  0  0  0  0  0  0
    1.9428   -1.9167    0.0303 H   0  0  0  0  0  0  0  0  0  0  0
    1.6972    0.5525    0.1468 H   0  0  0  0  0  0  0  0  0  0  0
    1.0371   -0.1066   -1.3657 H   0  0  0  0  0  0  0  0  0  0  0
   -2.3067   -2.3372   -0.3517 H   0  0  0  0  0  0  0  0  0  0  0
   -1.6470   -1.6727    1.1574 H   0  0  0  0  0  0  0  0  0  0  0
   -0.0946   -3.3386    0.2087 H   0  0  0  0  0  0  0  0  0  0  0
   -0.0443   -2.4490   -1.3278 H   0  0  0  0  0  0  0  0  0  0  0
   -2.5693    0.1289   -0.2464 H   0  0  0  0  0  0  0  0  0  0  0
   -1.5303   -0.3643   -1.6007 H   0  0  0  0  0  0  0  0  0  0  0
   -0.5732    0.6343    1.1258 H   0  0  0  0  0  0  0  0  0  0  0
  1  2  1  0  0  0  0
  1  4  1  0  0  0  0
  1 10  1  0  0  0  0
  1 11  1  0  0  0  0
  2  6  1  0  0  0  0
  2 12  1  0  0  0  0
  2 13  1  0  0  0  0
  3  4  1  0  0  0  0
  3  5  1  0  0  0  0
  3 14  1  0  0  0  0
  3 15  1  0  0  0  0
  4 16  1  0  0  0  0
  4 17  1  0  0  0  0
  5  6  1  0  0  0  0
  5 18  1  0  0  0  0
  5 19  1  0  0  0  0
  6  7  1  0  0  0  0
  6 20  1  0  0  0  0
  7  8  2  0  0  0  0
  7  9  1  0  0  0  0
M  END
> <Energy>
2.1153

> <Ring Energy>
None

$$$$
o6_mol_1

Vconf v2.1
 20 20  0  0  0  0  0  0  0  0999 V2000
    1.0296   -1.5324   -0.1079 C   0  0  0  0  0  0  0  0  0  0  0
    0.8553   -0.0262    0.1433 C   0  0  0  0  0  0  0  0  0  0  0
   -1.4564   -1.7653   -0.4405 C   0  0  0  0  0  0  0  0  0  0  0
   -0.2317   -2.2963    0.3189 C   0  0  0  0  0  0  0  0  0  0  0
   -1.6327   -0.2593   -0.1916 C   0  0  0  0  0  0  0  0  0  0  0
   -0.3697    0.5147   -0.6250 C   0  0  0  0  0  0  0  0  0  0  0
   -0.5610    1.9647   -0.4315 C   0  0  0  0  0  0  0  0  0  0  0
   -1.4716    2.5577   -1.0519 O   0  0  0  0  0  0  0  0  0  0  0
    0.1792    2.6304    0.3290 O   0  5  0  0  0  0  0  0  0  0  0
    1.2156   -1.7035   -1.1696 H   0  0  0  0  0  0  0  0  0  0  0
    1.8827   -1.8968    0.4650 H   0  0  0  0  0  0  0  0  0  0  0
    1.7548    0.4922   -0.1904 H   0  0  0  0  0  0  0  0  0  0  0
    0.7251    0.1450    1.2133 H   0  0  0  0  0  0  0  0  0  0  0
   -2.3476   -2.2927   -0.0990 H   0  0  0  0  0  0  0  0  0  0  0
   -1.3261   -1.9434   -1.5083 H   0  0  0  0  0  0  0  0  0  0  0
   -0.1038   -3.3563    0.1006 H   0  0  0  0  0  0  0  0  0  0  0
   -0.3869   -2.1695    1.3915 H   0  0  0  0  0  0  0  0  0  0  0
   -2.4935    0.0898   -0.7641 H   0  0  0  0  0  0  0  0  0  0  0
   -1.8220   -0.0921    0.8702 H   0  0  0  0  0  0  0  0  0  0  0
   -0.2073    0.3422   -1.6900 H   0  0  0  0  0  0  0  0  0  0  0
  1  2  1  0  0  0  0
  1  4  1  0  0  0  0
  1 10  1  0  0  0  0
  1 11  1  0  0  0  0
  2  6  1  0  0  0  0
  2 12  1  0  0  0  0
  2 13  1  0  0  0  0
  3  4  1  0  0  0  0
  3  5  1  0  0  0  0
  3 14  1  0  0  0  0
  3 15  1  0  0  0  0
  4 16  1  0  0  0  0
  4 17  1  0  0  0  0
  5  6  1  0  0  0  0
  5 18  1  0  0  0  0
  5 19  1  0  0  0  0
  6  7  1  0  0  0  0
  6 20  1  0  0  0  0
  7  8  2  0  0  0  0
  7  9  1  0  0  0  0
M  END
> <Energy>
2.6917

> <Ring Energy>
None

$$$$
o6_mol_1

Vconf v2.1
 20 20  0  0  0  0  0  0  0  0999 V2000
    0.9406   -1.4827    0.4086 C   0  0  0  0  0  0  0  0  0  0  0
    0.9077   -0.0555   -0.1609 C   0  0  0  0  0  0  0  0  0  0  0
   -1.5211   -1.7292   -0.0652 C   0  0  0  0  0  0  0  0  0  0  0
   -0.1315   -2.3523   -0.2631 C   0  0  0  0  0  0  0  0  0  0  0
   -1.5566   -0.3019   -0.6332 C   0  0  0  0  0  0  0  0  0  0  0
   -0.4849    0.5791    0.0432 C   0  0  0  0  0  0  0  0  0  0  0
   -0.5547    1.9612   -0.4680 C   0  0  0  0  0  0  0  0  0  0  0
   -1.6001    2.6295   -0.3062 O   0  0  0  0  0  0  0  0  0  0  0
    0.4167    2.4977   -1.0494 O   0  5  0  0  0  0  0  0  0  0  0
    0.7583   -1.4479    1.4840 H   0  0  0  0  0  0  0  0  0  0  0
    1.9234   -1.9195    0.2292 H   0  0  0  0  0  0  0  0  0  0  0
    1.6617    0.5443    0.3500 H   0  0  0  0  0  0  0  0  0  0  0
    1.1454   -0.0899   -1.2255 H   0  0  0  0  0  0  0  0  0  0  0
   -2.2649   -2.3389   -0.5790 H   0  0  0  0  0  0  0  0  0  0  0
   -1.7581   -1.7020    0.9987 H   0  0  0  0  0  0  0  0  0  0  0
   -0.1171   -3.3489    0.1778 H   0  0  0  0  0  0  0  0  0  0  0
    0.0821   -2.4316   -1.3302 H   0  0  0  0  0  0  0  0  0  0  0
   -2.5469    0.1197   -0.4538 H   0  0  0  0  0  0  0  0  0  0  0
   -1.3775   -0.3405   -1.7092 H   0  0  0  0  0  0  0  0  0  0  0
   -0.6905    0.6123    1.1141 H   0  0  0  0  0  0  0  0  0  0  0
  1  2  1  0  0  0  0
  1  4  1  0  0  0  0
  1 10  1  0  0  0  0
  1 11  1  0  0  0  0
  2  6  1  0  0  0  0
  2 12  1  0  0  0  0
  2 13  1  0  0  0  0
  3  4  1  0  0  0  0
  3  5  1  0  0  0  0
  3 14  1  0  0  0  0
  3 15  1  0  0  0  0
  4 16  1  0  0  0  0
  4 17  1  0  0  0  0
  5  6  1  0  0  0  0
  5 18  1  0  0  0  0
  5 19  1  0  0  0  0
  6  7  1  0  0  0  0
  6 20  1  0  0  0  0
  7  8  2  0  0  0  0
  7  9  1  0  0  0  0
M  END
> <Energy>
2.6917

> <Ring Energy>
None

$$$$
o6_mol_1

Vconf v2.1
 20 20  0  0  0  0  0  0  0  0999 V2000
    1.0282   -1.5200   -0.2163 C   0  0  0  0  0  0  0  0  0  0  0
    0.8621   -0.0126    0.0315 C   0  0  0  0  0  0  0  0  0  0  0
   -1.4745   -1.7799   -0.3346 C   0  0  0  0  0  0  0  0  0  0  0
   -0.1853   -2.2910    0.3244 C   0  0  0  0  0  0  0  0  0  0  0
   -1.6429   -0.2743   -0.0809 C   0  0  0  0  0  0  0  0  0  0  0
   -0.4307    0.5097   -0.6306 C   0  0  0  0  0  0  0  0  0  0  0
   -0.5633    1.9646   -0.4303 C   0  0  0  0  0  0  0  0  0  0  0
    0.3076    2.7354   -0.8906 O   0  0  0  0  0  0  0  0  0  0  0
   -1.5430    2.4601    0.1739 O   0  5  0  0  0  0  0  0  0  0  0
    1.1258   -1.7027   -1.2864 H   0  0  0  0  0  0  0  0  0  0  0
    1.9302   -1.8706    0.2871 H   0  0  0  0  0  0  0  0  0  0  0
    1.7262    0.5067   -0.3885 H   0  0  0  0  0  0  0  0  0  0  0
    0.8271    0.1719    1.1071 H   0  0  0  0  0  0  0  0  0  0  0
   -2.3285   -2.3129    0.0845 H   0  0  0  0  0  0  0  0  0  0  0
   -1.4320   -1.9651   -1.4091 H   0  0  0  0  0  0  0  0  0  0  0
   -0.0650   -3.3528    0.1053 H   0  0  0  0  0  0  0  0  0  0  0
   -0.2507   -2.1558    1.4043 H   0  0  0  0  0  0  0  0  0  0  0
   -2.5530    0.0664   -0.5769 H   0  0  0  0  0  0  0  0  0  0  0
   -1.7395   -0.1011    0.9927 H   0  0  0  0  0  0  0  0  0  0  0
   -0.3669    0.3274   -1.7045 H   0  0  0  0  0  0  0  0  0  0  0
  1  2  1  0  0  0  0
  1  4  1  0  0  0  0
  1 10  1  0  0  0  0
  1 11  1  0  0  0  0
  2  6  1  0  0  0  0
  2 12  1  0  0  0  0
  2 13  1  0  0  0  0
  3  4  1  0  0  0  0
  3  5  1  0  0  0  0
  3 14  1  0  0  0  0
  3 15  1  0  0  0  0
  4 16  1  0  0  0  0
  4 17  1  0  0  0  0
  5  6  1  0  0  0  0
  5 18  1  0  0  0  0
  5 19  1  0  0  0  0
  6  7  1  0  0  0  0
  6 20  1  0  0  0  0
  7  8  2  0  0  0  0
  7  9  1  0  0  0  0
M  END
> <Energy>
2.6921

> <Ring Energy>
None

$$$$
o6_mol_1

Vconf v2.1
 20 20  0  0  0  0  0  0  0  0999 V2000
    1.0172   -1.4786    0.1632 C   0  0  0  0  0  0  0  0  0  0  0
    0.8751   -0.0611   -0.4125 C   0  0  0  0  0  0  0  0  0  0  0
   -1.4898   -1.7226    0.1906 C   0  0  0  0  0  0  0  0  0  0  0
   -0.1681   -2.3556   -0.2676 C   0  0  0  0  0  0  0  0  0  0  0
   -1.6338   -0.3081   -0.3907 C   0  0  0  0  0  0  0  0  0  0  0
   -0.4504    0.5834    0.0460 C   0  0  0  0  0  0  0  0  0  0  0
   -0.5622    1.9603   -0.4702 C   0  0  0  0  0  0  0  0  0  0  0
    0.2856    2.8175   -0.1374 O   0  0  0  0  0  0  0  0  0  0  0
   -1.5023    2.3078   -1.2222 O   0  5  0  0  0  0  0  0  0  0  0
    1.0519   -1.4260    1.2514 H   0  0  0  0  0  0  0  0  0  0  0
    1.9444   -1.9238   -0.2001 H   0  0  0  0  0  0  0  0  0  0  0
    1.7168    0.5419   -0.0653 H   0  0  0  0  0  0  0  0  0  0  0
    0.9032   -0.1127   -1.5029 H   0  0  0  0  0  0  0  0  0  0  0
   -2.3216   -2.3387   -0.1522 H   0  0  0  0  0  0  0  0  0  0  0
   -1.5103   -1.6718    1.2805 H   0  0  0  0  0  0  0  0  0  0  0
   -0.0673   -3.3445    0.1816 H   0  0  0  0  0  0  0  0  0  0  0
   -0.1704   -2.4565   -1.3532 H   0  0  0  0  0  0  0  0  0  0  0
   -2.5689    0.1257   -0.0329 H   0  0  0  0  0  0  0  0  0  0  0
   -1.6674   -0.3708   -1.4801 H   0  0  0  0  0  0  0  0  0  0  0
   -0.4496    0.6372    1.1359 H   0  0  0  0  0  0  0  0  0  0  0
  1  2  1  0  0  0  0
  1  4  1  0  0  0  0
  1 10  1  0  0  0  0
  1 11  1  0  0  0  0
  2  6  1  0  0  0  0
  2 12  1  0  0  0  0
  2 13  1  0  0  0  0
  3  4  1  0  0  0  0
  3  5  1  0  0  0  0
  3 14  1  0  0  0  0
  3 15  1  0  0  0  0
  4 16  1  0  0  0  0
  4 17  1  0  0  0  0
  5  6  1  0  0  0  0
  5 18  1  0  0  0  0
  5 19  1  0  0  0  0
  6  7  1  0  0  0  0
  6 20  1  0  0  0  0
  7  8  2  0  0  0  0
  7  9  1  0  0  0  0
M  END
> <Energy>
2.6921

> <Ring Energy>
None

$$$$
o6_mol_1

Vconf v2.1
 20 20  0  0  0  0  0  0  0  0999 V2000
    0.9910   -1.2879    0.2172 C   0  0  0  0  0  0  0  0  0  0  0
    0.9035   -0.1269   -0.7892 C   0  0  0  0  0  0  0  0  0  0  0
   -1.5225   -1.5018    0.2087 C   0  0  0  0  0  0  0  0  0  0  0
   -0.1926   -2.2491    0.0356 C   0  0  0  0  0  0  0  0  0  0  0
   -1.6248   -0.3450   -0.7987 C   0  0  0  0  0  0  0  0  0  0  0
   -0.4363    0.6381   -0.7031 C   0  0  0  0  0  0  0  0  0  0  0
   -0.5165    1.5148    0.4816 C   0  0  0  0  0  0  0  0  0  0  0
   -0.4816    1.0572    1.6452 O   0  0  0  0  0  0  0  0  0  0  0
   -0.6249    2.7528    0.3317 O   0  5  0  0  0  0  0  0  0  0  0
    1.9209   -1.8326    0.0531 H   0  0  0  0  0  0  0  0  0  0  0
    0.9901   -0.8969    1.2344 H   0  0  0  0  0  0  0  0  0  0  0
    1.0010   -0.5390   -1.7948 H   0  0  0  0  0  0  0  0  0  0  0
    1.7341    0.5595   -0.6191 H   0  0  0  0  0  0  0  0  0  0  0
   -2.3458   -2.1963    0.0384 H   0  0  0  0  0  0  0  0  0  0  0
   -1.5946   -1.1163    1.2258 H   0  0  0  0  0  0  0  0  0  0  0
   -0.1270   -3.0440    0.7791 H   0  0  0  0  0  0  0  0  0  0  0
   -0.1514   -2.6905   -0.9610 H   0  0  0  0  0  0  0  0  0  0  0
   -1.6410   -0.7673   -1.8050 H   0  0  0  0  0  0  0  0  0  0  0
   -2.5616    0.1905   -0.6374 H   0  0  0  0  0  0  0  0  0  0  0
   -0.4881    1.2836   -1.5804 H   0  0  0  0  0  0  0  0  0  0  0
  1  2  1  0  0  0  0
  1  4  1  0  0  0  0
  1 10  1  0  0  0  0
  1 11  1  0  0  0  0
  2  6  1  0  0  0  0
  2 12  1  0  0  0  0
  2 13  1  0  0  0  0
  3  4  1  0  0  0  0
  3  5  1  0  0  0  0
  3 14  1  0  0  0  0
  3 15  1  0  0  0  0
  4 16  1  0  0  0  0
  4 17  1  0  0  0  0
  5  6  1  0  0  0  0
  5 18  1  0  0  0  0
  5 19  1  0  0  0  0
  6  7  1  0  0  0  0
  6 20  1  0  0  0  0
  7  8  2  0  0  0  0
  7  9  1  0  0  0  0
M  END
> <Energy>
3.9921

> <Ring Energy>
None

$$$$
o6_mol_1

Vconf v2.1
 20 20  0  0  0  0  0  0  0  0999 V2000
    1.0176   -1.3269   -0.3115 C   0  0  0  0  0  0  0  0  0  0  0
    0.8387   -0.0318    0.5004 C   0  0  0  0  0  0  0  0  0  0  0
   -1.4857   -1.5557   -0.5223 C   0  0  0  0  0  0  0  0  0  0  0
   -0.1853   -2.2599   -0.1101 C   0  0  0  0  0  0  0  0  0  0  0
   -1.6795   -0.2648    0.2898 C   0  0  0  0  0  0  0  0  0  0  0
   -0.4802    0.7025    0.1704 C   0  0  0  0  0  0  0  0  0  0  0
   -0.4354    1.3959   -1.1319 C   0  0  0  0  0  0  0  0  0  0  0
   -0.2881    0.7733   -2.2067 O   0  0  0  0  0  0  0  0  0  0  0
   -0.5492    2.6416   -1.1763 O   0  5  0  0  0  0  0  0  0  0  0
    1.9224   -1.8349    0.0224 H   0  0  0  0  0  0  0  0  0  0  0
    1.1209   -1.0888   -1.3699 H   0  0  0  0  0  0  0  0  0  0  0
    0.8326   -0.2917    1.5602 H   0  0  0  0  0  0  0  0  0  0  0
    1.6872    0.6284    0.3154 H   0  0  0  0  0  0  0  0  0  0  0
   -2.3270   -2.2238   -0.3351 H   0  0  0  0  0  0  0  0  0  0  0
   -1.4534   -1.3236   -1.5869 H   0  0  0  0  0  0  0  0  0  0  0
   -0.0517   -3.1545   -0.7190 H   0  0  0  0  0  0  0  0  0  0  0
   -0.2468   -2.5504    0.9394 H   0  0  0  0  0  0  0  0  0  0  0
   -1.7990   -0.5354    1.3404 H   0  0  0  0  0  0  0  0  0  0  0
   -2.5916    0.2345   -0.0407 H   0  0  0  0  0  0  0  0  0  0  0
   -0.6144    1.4690    0.9342 H   0  0  0  0  0  0  0  0  0  0  0
  1  2  1  0  0  0  0
  1  4  1  0  0  0  0
  1 10  1  0  0  0  0
  1 11  1  0  0  0  0
  2  6  1  0  0  0  0
  2 12  1  0  0  0  0
  2 13  1  0  0  0  0
  3  4  1  0  0  0  0
  3  5  1  0  0  0  0
  3 14  1  0  0  0  0
  3 15  1  0  0  0  0
  4 16  1  0  0  0  0
  4 17  1  0  0  0  0
  5  6  1  0  0  0  0
  5 18  1  0  0  0  0
  5 19  1  0  0  0  0
  6  7  1  0  0  0  0
  6 20  1  0  0  0  0
  7  8  2  0  0  0  0
  7  9  1  0  0  0  0
M  END
> <Energy>
3.9921

> <Ring Energy>
None

$$$$
