o6

Vconf v2.1
 20 20  0  0  0  0  0  0  0  0999 V2000
    1.0310   -1.5240   -0.1600 C   0  0  0  0  0  0  0  0  0  0  0
    0.8630   -0.0150    0.0790 C   0  0  0  0  0  0  0  0  0  0  0
   -1.4690   -1.7710   -0.3870 C   0  0  0  0  0  0  0  0  0  0  0
   -0.2100   -2.2870    0.3270 C   0  0  0  0  0  0  0  0  0  0  0
   -1.6410   -0.2630   -0.1450 C   0  0  0  0  0  0  0  0  0  0  0
   -0.3990    0.5060   -0.6390 C   0  0  0  0  0  0  0  0  0  0  0
   -0.5620    1.9550   -0.4280 C   0  0  0  0  0  0  0  0  0  0  0
   -0.5540    2.7370   -1.4030 O   0  0  0  0  0  0  0  0  0  0  0
   -0.7080    2.4190    0.7260 O   0  5  0  0  0  0  0  0  0  0  0
    1.1760   -1.7080   -1.2250 H   0  0  0  0  0  0  0  0  0  0  0
    1.9070   -1.8780    0.3840 H   0  0  0  0  0  0  0  0  0  0  0
    1.7430    0.5030   -0.3050 H   0  0  0  0  0  0  0  0  0  0  0
    0.7820    0.1690    1.1520 H   0  0  0  0  0  0  0  0  0  0  0
   -2.3420   -2.2990   -0.0030 H   0  0  0  0  0  0  0  0  0  0  0
   -1.3820   -1.9590   -1.4580 H   0  0  0  0  0  0  0  0  0  0  0
   -0.0850   -3.3490    0.1140 H   0  0  0  0  0  0  0  0  0  0  0
   -0.3210   -2.1500    1.4030 H   0  0  0  0  0  0  0  0  0  0  0
   -2.5250    0.0810   -0.6840 H   0  0  0  0  0  0  0  0  0  0  0
   -1.7860   -0.0880    0.9230 H   0  0  0  0  0  0  0  0  0  0  0
   -0.2860    0.3240   -1.7090 H   0  0  0  0  0  0  0  0  0  0  0
  1  2  1  0  0  0  0
  1  4  1  0  0  0  0
  1 10  1  0  0  0  0
  1 11  1  0  0  0  0
  2  6  1  0  0  0  0
  2 12  1  0  0  0  0
  2 13  1  0  0  0  0
  3  4  1  0  0  0  0
  3  5  1  0  0  0  0
  3 14  1  0  0  0  0
  3 15  1  0  0  0  0
  4 16  1  0  0  0  0
  4 17  1  0  0  0  0
  5  6  1  0  0  0  0
  5 18  1  0  0  0  0
  5 19  1  0  0  0  0
  6  7  1  0  0  0  0
  6 20  1  0  0  0  0
  7  8  2  0  0  0  0
  7  9  1  0  0  0  0
M  END
> <Energy>
2.1153

> <Ring Energy>
None

> <VC.Vconf.Error>
N/A

> <Time>
0.780005

> <MaxConf>
N/A

$$$$
