

verachem
 10 10  0  0  0  0  0  0  0  0999 V2000
   -0.1234   -0.4397    0.0000 C   0  0  0  0  0  0  0  0  0  0  0  0
   -0.1234    0.5603    0.0000 C   0  0  0  0  0  0  0  0  0  0  0  0
   -1.8554   -0.4397    0.0000 C   0  0  0  0  0  0  0  0  0  0  0  0
   -0.9894   -0.9396    0.0000 C   0  0  0  0  0  0  0  0  0  0  0  0
   -1.8554    0.5603    0.0000 C   0  0  0  0  0  0  0  0  0  0  0  0
   -0.9894    1.0604    0.0000 C   0  0  0  0  0  0  0  0  0  0  0  0
   -1.0619    2.2582    0.0000 C   0  0  0  0  0  0  0  0  0  0  0  0
   -1.9123    3.1049    0.0000 O   0  0  0  0  0  0  0  0  0  0  0  0
   -0.1041    2.9811    0.0000 O   0  5  0  0  0  0  0  0  0  0  0  0
   -0.9894   -2.1396    0.0000 C   0  0  0  0  0  0  0  0  0  0  0  0
  1  2  1  0  0  0  0
  6  7  1  1  0  0  0
  7  8  2  0  0  0  0
  7  9  1  0  0  0  0
  4 10  1  6  0  0  0
  5  6  1  0  0  0  0
  2  6  1  0  0  0  0
  3  4  1  0  0  0  0
  1  4  1  0  0  0  0
  3  5  1  0  0  0  0
M  END
$$$$
