o7_mol_1

Vconf v2.1
 23 23  0  0  0  0  0  0  0  0999 V2000
   -0.2250    0.3790    0.3320 C   0  0  0  0  0  0  0  0  0  0  0
    1.0990    0.7760   -0.3390 C   0  0  0  0  0  0  0  0  0  0  0
   -1.2870    0.0820   -1.9350 C   0  0  0  0  0  0  0  0  0  0  0
   -1.4170    0.7640   -0.5620 C   0  0  1  0  0  0  0  0  0  0  0
    0.0360    0.4770   -2.6090 C   0  0  0  0  0  0  0  0  0  0  0
    1.2310    0.0920   -1.7140 C   0  0  1  0  0  0  0  0  0  0  0
    2.5060    0.4510   -2.3570 C   0  0  0  0  0  0  0  0  0  0  0
    2.7650    1.6430   -2.6350 O   0  0  0  0  0  0  0  0  0  0  0
    3.3450   -0.4360   -2.6310 O   0  5  0  0  0  0  0  0  0  0  0
   -2.7350    0.3530    0.1090 C   0  0  0  0  0  0  0  0  0  0  0
   -0.2310   -0.6980    0.5080 H   0  0  0  0  0  0  0  0  0  0  0
   -0.3080    0.8950    1.2890 H   0  0  0  0  0  0  0  0  0  0  0
    1.9250    0.4700    0.3050 H   0  0  0  0  0  0  0  0  0  0  0
    1.1270    1.8600   -0.4600 H   0  0  0  0  0  0  0  0  0  0  0
   -2.1170    0.3900   -2.5730 H   0  0  0  0  0  0  0  0  0  0  0
   -1.3180   -1.0020   -1.8110 H   0  0  0  0  0  0  0  0  0  0  0
   -1.4200    1.8460   -0.7030 H   0  0  0  0  0  0  0  0  0  0  0
    0.0380    1.5540   -2.7860 H   0  0  0  0  0  0  0  0  0  0  0
    0.1120   -0.0400   -3.5670 H   0  0  0  0  0  0  0  0  0  0  0
    1.2140   -0.9890   -1.5640 H   0  0  0  0  0  0  0  0  0  0  0
   -2.8270    0.8550    1.0730 H   0  0  0  0  0  0  0  0  0  0  0
   -3.5740    0.6420   -0.5250 H   0  0  0  0  0  0  0  0  0  0  0
   -2.7550   -0.7270    0.2620 H   0  0  0  0  0  0  0  0  0  0  0
  1  2  1  0  0  0  0
  1  4  1  0  0  0  0
  1 11  1  0  0  0  0
  1 12  1  0  0  0  0
  2  6  1  0  0  0  0
  2 13  1  0  0  0  0
  2 14  1  0  0  0  0
  3  4  1  0  0  0  0
  3  5  1  0  0  0  0
  3 15  1  0  0  0  0
  3 16  1  0  0  0  0
  4 10  1  6  0  0  0
  4 17  1  0  0  0  0
  5  6  1  0  0  0  0
  5 18  1  0  0  0  0
  5 19  1  0  0  0  0
  6  7  1  1  0  0  0
  6 20  1  0  0  0  0
  7  8  2  0  0  0  0
  7  9  1  0  0  0  0
 10 21  1  0  0  0  0
 10 22  1  0  0  0  0
 10 23  1  0  0  0  0
M  END
> <Energy>
1.5008

> <Ring Energy>
None

$$$$
o7_mol_1

Vconf v2.1
 23 23  0  0  0  0  0  0  0  0999 V2000
   -0.2478    0.7388    0.2955 C   0  0  0  0  0  0  0  0  0  0  0
    1.1238    0.3842   -0.2993 C   0  0  0  0  0  0  0  0  0  0  0
   -1.3098    0.4413   -1.9714 C   0  0  0  0  0  0  0  0  0  0  0
   -1.3709    0.0369   -0.4883 C   0  0  1  0  0  0  0  0  0  0  0
    0.0607    0.0880   -2.5695 C   0  0  0  0  0  0  0  0  0  0  0
    1.1867    0.7904   -1.7848 C   0  0  1  0  0  0  0  0  0  0  0
    2.5047    0.4723   -2.3592 C   0  0  0  0  0  0  0  0  0  0  0
    2.9141   -0.7094   -2.3964 O   0  0  0  0  0  0  0  0  0  0  0
    3.2297    1.3843   -2.8156 O   0  5  0  0  0  0  0  0  0  0  0
   -2.7383    0.4058    0.1036 C   0  0  0  0  0  0  0  0  0  0  0
   -0.3905    1.8198    0.2526 H   0  0  0  0  0  0  0  0  0  0  0
   -0.2778    0.4183    1.3373 H   0  0  0  0  0  0  0  0  0  0  0
    1.8969    0.9136    0.2600 H   0  0  0  0  0  0  0  0  0  0  0
    1.2886   -0.6899   -0.2014 H   0  0  0  0  0  0  0  0  0  0  0
   -2.0866   -0.0893   -2.5244 H   0  0  0  0  0  0  0  0  0  0  0
   -1.4775    1.5157   -2.0663 H   0  0  0  0  0  0  0  0  0  0  0
   -1.2369   -1.0432   -0.4100 H   0  0  0  0  0  0  0  0  0  0  0
    0.1994   -0.9938   -2.5276 H   0  0  0  0  0  0  0  0  0  0  0
    0.0836    0.4083   -3.6125 H   0  0  0  0  0  0  0  0  0  0  0
    1.0329    1.8688   -1.8538 H   0  0  0  0  0  0  0  0  0  0  0
   -2.7791    0.0993    1.1496 H   0  0  0  0  0  0  0  0  0  0  0
   -3.5266   -0.1067   -0.4491 H   0  0  0  0  0  0  0  0  0  0  0
   -2.8951    1.4835    0.0378 H   0  0  0  0  0  0  0  0  0  0  0
  1  2  1  0  0  0  0
  1  4  1  0  0  0  0
  1 11  1  0  0  0  0
  1 12  1  0  0  0  0
  2  6  1  0  0  0  0
  2 13  1  0  0  0  0
  2 14  1  0  0  0  0
  3  4  1  0  0  0  0
  3  5  1  0  0  0  0
  3 15  1  0  0  0  0
  3 16  1  0  0  0  0
  4 10  1  6  0  0  0
  4 17  1  0  0  0  0
  5  6  1  0  0  0  0
  5 18  1  0  0  0  0
  5 19  1  0  0  0  0
  6  7  1  1  0  0  0
  6 20  1  0  0  0  0
  7  8  2  0  0  0  0
  7  9  1  0  0  0  0
 10 21  1  0  0  0  0
 10 22  1  0  0  0  0
 10 23  1  0  0  0  0
M  END
> <Energy>
1.5008

> <Ring Energy>
None

$$$$
o7_mol_1

Vconf v2.1
 23 23  0  0  0  0  0  0  0  0999 V2000
   -0.2194    0.2395    0.3260 C   0  0  0  0  0  0  0  0  0  0  0
    1.1175    0.6406   -0.3161 C   0  0  0  0  0  0  0  0  0  0  0
   -1.3067    0.2267   -1.9467 C   0  0  0  0  0  0  0  0  0  0  0
   -1.3973    0.7689   -0.5100 C   0  0  1  0  0  0  0  0  0  0  0
    0.0295    0.6288   -2.5900 C   0  0  0  0  0  0  0  0  0  0  0
    1.2144    0.0955   -1.7580 C   0  0  1  0  0  0  0  0  0  0  0
    2.4960    0.4382   -2.4034 C   0  0  0  0  0  0  0  0  0  0  0
    2.7488    0.0026   -3.5478 O   0  0  0  0  0  0  0  0  0  0  0
    3.3540    1.1467   -1.8278 O   0  5  0  0  0  0  0  0  0  0  0
   -2.7284    0.3494    0.1302 C   0  0  0  0  0  0  0  0  0  0  0
   -0.2750   -0.8480    0.3914 H   0  0  0  0  0  0  0  0  0  0  0
   -0.2712    0.6590    1.3312 H   0  0  0  0  0  0  0  0  0  0  0
    1.9319    0.2330    0.2844 H   0  0  0  0  0  0  0  0  0  0  0
    1.1968    1.7288   -0.3271 H   0  0  0  0  0  0  0  0  0  0  0
   -2.1245    0.6364   -2.5411 H   0  0  0  0  0  0  0  0  0  0  0
   -1.3878   -0.8608   -1.9356 H   0  0  0  0  0  0  0  0  0  0  0
   -1.3510    1.8584   -0.5382 H   0  0  0  0  0  0  0  0  0  0  0
    0.0834    1.7175   -2.6535 H   0  0  0  0  0  0  0  0  0  0  0
    0.0710    0.2133   -3.5983 H   0  0  0  0  0  0  0  0  0  0  0
    1.1464   -0.9926   -1.7160 H   0  0  0  0  0  0  0  0  0  0  0
   -3.5576    0.7403   -0.4597 H   0  0  0  0  0  0  0  0  0  0  0
   -2.7962   -0.7380    0.1710 H   0  0  0  0  0  0  0  0  0  0  0
   -2.7905    0.7527    1.1422 H   0  0  0  0  0  0  0  0  0  0  0
  1  2  1  0  0  0  0
  1  4  1  0  0  0  0
  1 11  1  0  0  0  0
  1 12  1  0  0  0  0
  2  6  1  0  0  0  0
  2 13  1  0  0  0  0
  2 14  1  0  0  0  0
  3  4  1  0  0  0  0
  3  5  1  0  0  0  0
  3 15  1  0  0  0  0
  3 16  1  0  0  0  0
  4 10  1  6  0  0  0
  4 17  1  0  0  0  0
  5  6  1  0  0  0  0
  5 18  1  0  0  0  0
  5 19  1  0  0  0  0
  6  7  1  1  0  0  0
  6 20  1  0  0  0  0
  7  8  2  0  0  0  0
  7  9  1  0  0  0  0
 10 21  1  0  0  0  0
 10 22  1  0  0  0  0
 10 23  1  0  0  0  0
M  END
> <Energy>
2.0766

> <Ring Energy>
None

$$$$
o7_mol_1

Vconf v2.1
 23 23  0  0  0  0  0  0  0  0999 V2000
   -0.2316    0.6044    0.3251 C   0  0  0  0  0  0  0  0  0  0  0
    1.1292    0.2899   -0.3152 C   0  0  0  0  0  0  0  0  0  0  0
   -1.3169    0.5337   -1.9475 C   0  0  0  0  0  0  0  0  0  0  0
   -1.3715   -0.0063   -0.5081 C   0  0  1  0  0  0  0  0  0  0  0
    0.0432    0.2181   -2.5890 C   0  0  0  0  0  0  0  0  0  0  0
    1.1898    0.8331   -1.7599 C   0  0  1  0  0  0  0  0  0  0  0
    2.4915    0.5731   -2.4037 C   0  0  0  0  0  0  0  0  0  0  0
    2.7150    1.0190   -3.5503 O   0  0  0  0  0  0  0  0  0  0  0
    3.3946   -0.0739   -1.8248 O   0  5  0  0  0  0  0  0  0  0  0
   -2.7277    0.3270    0.1302 C   0  0  0  0  0  0  0  0  0  0  0
   -0.3593    1.6861    0.3851 H   0  0  0  0  0  0  0  0  0  0  0
   -0.2555    0.1873    1.3324 H   0  0  0  0  0  0  0  0  0  0  0
    1.9146    0.7537    0.2831 H   0  0  0  0  0  0  0  0  0  0  0
    1.2806   -0.7907   -0.3209 H   0  0  0  0  0  0  0  0  0  0  0
   -2.1056    0.0675   -2.5397 H   0  0  0  0  0  0  0  0  0  0  0
   -1.4702    1.6134   -1.9418 H   0  0  0  0  0  0  0  0  0  0  0
   -1.2529   -1.0904   -0.5310 H   0  0  0  0  0  0  0  0  0  0  0
    0.1694   -0.8649   -2.6471 H   0  0  0  0  0  0  0  0  0  0  0
    0.0571    0.6305   -3.5993 H   0  0  0  0  0  0  0  0  0  0  0
    1.0497    1.9144   -1.7232 H   0  0  0  0  0  0  0  0  0  0  0
   -3.5289   -0.1211   -0.4576 H   0  0  0  0  0  0  0  0  0  0  0
   -2.8676    1.4077    0.1657 H   0  0  0  0  0  0  0  0  0  0  0
   -2.7630   -0.0745    1.1442 H   0  0  0  0  0  0  0  0  0  0  0
  1  2  1  0  0  0  0
  1  4  1  0  0  0  0
  1 11  1  0  0  0  0
  1 12  1  0  0  0  0
  2  6  1  0  0  0  0
  2 13  1  0  0  0  0
  2 14  1  0  0  0  0
  3  4  1  0  0  0  0
  3  5  1  0  0  0  0
  3 15  1  0  0  0  0
  3 16  1  0  0  0  0
  4 10  1  6  0  0  0
  4 17  1  0  0  0  0
  5  6  1  0  0  0  0
  5 18  1  0  0  0  0
  5 19  1  0  0  0  0
  6  7  1  1  0  0  0
  6 20  1  0  0  0  0
  7  8  2  0  0  0  0
  7  9  1  0  0  0  0
 10 21  1  0  0  0  0
 10 22  1  0  0  0  0
 10 23  1  0  0  0  0
M  END
> <Energy>
2.0766

> <Ring Energy>
None

$$$$
o7_mol_1

Vconf v2.1
 23 23  0  0  0  0  0  0  0  0999 V2000
   -0.2225    0.3595    0.3262 C   0  0  0  0  0  0  0  0  0  0  0
    1.0999    0.7592   -0.3460 C   0  0  0  0  0  0  0  0  0  0  0
   -1.2987    0.1069   -1.9376 C   0  0  0  0  0  0  0  0  0  0  0
   -1.4173    0.7659   -0.5531 C   0  0  1  0  0  0  0  0  0  0  0
    0.0229    0.5079   -2.6100 C   0  0  0  0  0  0  0  0  0  0  0
    1.2259    0.0961   -1.7337 C   0  0  1  0  0  0  0  0  0  0  0
    2.5182    0.4400   -2.3558 C   0  0  0  0  0  0  0  0  0  0  0
    3.5850    0.1032   -1.7939 O   0  0  0  0  0  0  0  0  0  0  0
    2.5818    1.0516   -3.4469 O   0  5  0  0  0  0  0  0  0  0  0
   -2.7338    0.3506    0.1197 C   0  0  0  0  0  0  0  0  0  0  0
   -0.2343   -0.7199    0.4836 H   0  0  0  0  0  0  0  0  0  0  0
   -0.2957    0.8598    1.2916 H   0  0  0  0  0  0  0  0  0  0  0
    1.9259    0.4388    0.2912 H   0  0  0  0  0  0  0  0  0  0  0
    1.1338    1.8451   -0.4507 H   0  0  0  0  0  0  0  0  0  0  0
   -2.1302    0.4280   -2.5656 H   0  0  0  0  0  0  0  0  0  0  0
   -1.3326   -0.9785   -1.8309 H   0  0  0  0  0  0  0  0  0  0  0
   -1.4161    1.8508   -0.6755 H   0  0  0  0  0  0  0  0  0  0  0
    0.0320    1.5888   -2.7646 H   0  0  0  0  0  0  0  0  0  0  0
    0.0890    0.0109   -3.5792 H   0  0  0  0  0  0  0  0  0  0  0
    1.1991   -0.9858   -1.6044 H   0  0  0  0  0  0  0  0  0  0  0
   -3.5750    0.6568   -0.5024 H   0  0  0  0  0  0  0  0  0  0  0
   -2.7576   -0.7316    0.2512 H   0  0  0  0  0  0  0  0  0  0  0
   -2.8157    0.8332    1.0937 H   0  0  0  0  0  0  0  0  0  0  0
  1  2  1  0  0  0  0
  1  4  1  0  0  0  0
  1 11  1  0  0  0  0
  1 12  1  0  0  0  0
  2  6  1  0  0  0  0
  2 13  1  0  0  0  0
  2 14  1  0  0  0  0
  3  4  1  0  0  0  0
  3  5  1  0  0  0  0
  3 15  1  0  0  0  0
  3 16  1  0  0  0  0
  4 10  1  6  0  0  0
  4 17  1  0  0  0  0
  5  6  1  0  0  0  0
  5 18  1  0  0  0  0
  5 19  1  0  0  0  0
  6  7  1  1  0  0  0
  6 20  1  0  0  0  0
  7  8  2  0  0  0  0
  7  9  1  0  0  0  0
 10 21  1  0  0  0  0
 10 22  1  0  0  0  0
 10 23  1  0  0  0  0
M  END
> <Energy>
2.0766

> <Ring Energy>
None

$$$$
o7_mol_1

Vconf v2.1
 23 23  0  0  0  0  0  0  0  0999 V2000
   -0.2658    0.8254    0.2665 C   0  0  0  0  0  0  0  0  0  0  0
    1.1224    0.5174   -0.3150 C   0  0  0  0  0  0  0  0  0  0  0
   -1.3171    0.3041   -1.9628 C   0  0  0  0  0  0  0  0  0  0  0
   -1.3462    0.0020   -0.4552 C   0  0  1  0  0  0  0  0  0  0  0
    0.0707   -0.0053   -2.5443 C   0  0  0  0  0  0  0  0  0  0  0
    1.1581    0.8239   -1.8270 C   0  0  1  0  0  0  0  0  0  0  0
    2.5056    0.5761   -2.3732 C   0  0  0  0  0  0  0  0  0  0  0
    3.4801    1.2306   -1.9384 O   0  0  0  0  0  0  0  0  0  0  0
    2.7046   -0.2668   -3.2779 O   0  5  0  0  0  0  0  0  0  0  0
   -2.7315    0.3260    0.1229 C   0  0  0  0  0  0  0  0  0  0  0
   -0.4772    1.8892    0.1492 H   0  0  0  0  0  0  0  0  0  0  0
   -0.2694    0.5776    1.3277 H   0  0  0  0  0  0  0  0  0  0  0
    1.8615    1.1314    0.2024 H   0  0  0  0  0  0  0  0  0  0  0
    1.3554   -0.5354   -0.1457 H   0  0  0  0  0  0  0  0  0  0  0
   -2.0616   -0.3093   -2.4711 H   0  0  0  0  0  0  0  0  0  0  0
   -1.5500    1.3569   -2.1302 H   0  0  0  0  0  0  0  0  0  0  0
   -1.1451   -1.0601   -0.3025 H   0  0  0  0  0  0  0  0  0  0  0
    0.2795   -1.0703   -2.4238 H   0  0  0  0  0  0  0  0  0  0  0
    0.0680    0.2371   -3.6082 H   0  0  0  0  0  0  0  0  0  0  0
    0.9323    1.8803   -1.9717 H   0  0  0  0  0  0  0  0  0  0  0
   -3.4884   -0.2734   -0.3832 H   0  0  0  0  0  0  0  0  0  0  0
   -2.9546    1.3839   -0.0199 H   0  0  0  0  0  0  0  0  0  0  0
   -2.7470    0.0958    1.1882 H   0  0  0  0  0  0  0  0  0  0  0
  1  2  1  0  0  0  0
  1  4  1  0  0  0  0
  1 11  1  0  0  0  0
  1 12  1  0  0  0  0
  2  6  1  0  0  0  0
  2 13  1  0  0  0  0
  2 14  1  0  0  0  0
  3  4  1  0  0  0  0
  3  5  1  0  0  0  0
  3 15  1  0  0  0  0
  3 16  1  0  0  0  0
  4 10  1  6  0  0  0
  4 17  1  0  0  0  0
  5  6  1  0  0  0  0
  5 18  1  0  0  0  0
  5 19  1  0  0  0  0
  6  7  1  1  0  0  0
  6 20  1  0  0  0  0
  7  8  2  0  0  0  0
  7  9  1  0  0  0  0
 10 21  1  0  0  0  0
 10 22  1  0  0  0  0
 10 23  1  0  0  0  0
M  END
> <Energy>
2.0766

> <Ring Energy>
None

$$$$
o7_mol_1

Vconf v2.1
 23 23  0  0  0  0  0  0  0  0999 V2000
   -0.2160   -0.0808    0.4329 C   0  0  0  0  0  0  0  0  0  0  0
    0.9201    0.6941   -0.2548 C   0  0  0  0  0  0  0  0  0  0  0
   -1.2952   -0.4916   -1.8173 C   0  0  0  0  0  0  0  0  0  0  0
   -1.5282   -0.0175   -0.3700 C   0  0  1  0  0  0  0  0  0  0  0
   -0.1583    0.2837   -2.5028 C   0  0  0  0  0  0  0  0  0  0  0
    1.1443    0.1662   -1.6857 C   0  0  1  0  0  0  0  0  0  0  0
    2.2431    0.8912   -2.3444 C   0  0  0  0  0  0  0  0  0  0  0
    2.1702    2.1265   -2.5309 O   0  0  0  0  0  0  0  0  0  0  0
    3.2658    0.2773   -2.7230 O   0  5  0  0  0  0  0  0  0  0  0
   -2.1479    1.3908   -0.3293 C   0  0  0  0  0  0  0  0  0  0  0
    0.0845   -1.1250    0.5321 H   0  0  0  0  0  0  0  0  0  0  0
   -0.3790    0.3308    1.4289 H   0  0  0  0  0  0  0  0  0  0  0
    1.8335    0.5635    0.3280 H   0  0  0  0  0  0  0  0  0  0  0
    0.6729    1.7559   -0.2829 H   0  0  0  0  0  0  0  0  0  0  0
   -2.2129   -0.3669   -2.3922 H   0  0  0  0  0  0  0  0  0  0  0
   -1.0363   -1.5511   -1.8010 H   0  0  0  0  0  0  0  0  0  0  0
   -2.2401   -0.7003    0.0962 H   0  0  0  0  0  0  0  0  0  0  0
   -0.4425    1.3319   -2.6048 H   0  0  0  0  0  0  0  0  0  0  0
   -0.0025   -0.1354   -3.4985 H   0  0  0  0  0  0  0  0  0  0  0
    1.4159   -0.8889   -1.6238 H   0  0  0  0  0  0  0  0  0  0  0
   -2.3402    1.6732    0.7063 H   0  0  0  0  0  0  0  0  0  0  0
   -1.4765    2.1204   -0.7792 H   0  0  0  0  0  0  0  0  0  0  0
   -3.0907    1.3889   -0.8768 H   0  0  0  0  0  0  0  0  0  0  0
  1  2  1  0  0  0  0
  1  4  1  0  0  0  0
  1 11  1  0  0  0  0
  1 12  1  0  0  0  0
  2  6  1  0  0  0  0
  2 13  1  0  0  0  0
  2 14  1  0  0  0  0
  3  4  1  0  0  0  0
  3  5  1  0  0  0  0
  3 15  1  0  0  0  0
  3 16  1  0  0  0  0
  4 10  1  6  0  0  0
  4 17  1  0  0  0  0
  5  6  1  0  0  0  0
  5 18  1  0  0  0  0
  5 19  1  0  0  0  0
  6  7  1  1  0  0  0
  6 20  1  0  0  0  0
  7  8  2  0  0  0  0
  7  9  1  0  0  0  0
 10 21  1  0  0  0  0
 10 22  1  0  0  0  0
 10 23  1  0  0  0  0
M  END
> <Energy>
2.2362

> <Ring Energy>
None

$$$$
o7_mol_1

Vconf v2.1
 23 23  0  0  0  0  0  0  0  0999 V2000
   -0.2572    1.3686    0.1989 C   0  0  0  0  0  0  0  0  0  0  0
    0.9262    0.4810   -0.2204 C   0  0  0  0  0  0  0  0  0  0  0
   -1.3374    0.9907   -2.0565 C   0  0  0  0  0  0  0  0  0  0  0
   -1.5567    0.9836   -0.5316 C   0  0  1  0  0  0  0  0  0  0  0
   -0.1532    0.1035   -2.4738 C   0  0  0  0  0  0  0  0  0  0  0
    1.1335    0.5438   -1.7467 C   0  0  1  0  0  0  0  0  0  0  0
    2.2767   -0.2895   -2.1538 C   0  0  0  0  0  0  0  0  0  0  0
    2.2740   -1.5228   -1.9419 O   0  0  0  0  0  0  0  0  0  0  0
    3.2671    0.2299   -2.7153 O   0  5  0  0  0  0  0  0  0  0  0
   -2.0977   -0.3726   -0.0447 C   0  0  0  0  0  0  0  0  0  0  0
   -0.0159    2.4060   -0.0378 H   0  0  0  0  0  0  0  0  0  0  0
   -0.4060    1.2827    1.2753 H   0  0  0  0  0  0  0  0  0  0  0
    1.8257    0.8385    0.2836 H   0  0  0  0  0  0  0  0  0  0  0
    0.7385   -0.5477    0.0889 H   0  0  0  0  0  0  0  0  0  0  0
   -2.2415    0.6410   -2.5549 H   0  0  0  0  0  0  0  0  0  0  0
   -1.1376    2.0142   -2.3765 H   0  0  0  0  0  0  0  0  0  0  0
   -2.3094    1.7377   -0.2973 H   0  0  0  0  0  0  0  0  0  0  0
   -0.3780   -0.9377   -2.2385 H   0  0  0  0  0  0  0  0  0  0  0
   -0.0119    0.1963   -3.5520 H   0  0  0  0  0  0  0  0  0  0  0
    1.3458    1.5782   -2.0220 H   0  0  0  0  0  0  0  0  0  0  0
   -2.2834   -0.3253    1.0289 H   0  0  0  0  0  0  0  0  0  0  0
   -1.3830   -1.1683   -0.2483 H   0  0  0  0  0  0  0  0  0  0  0
   -3.0343   -0.5951   -0.5566 H   0  0  0  0  0  0  0  0  0  0  0
  1  2  1  0  0  0  0
  1  4  1  0  0  0  0
  1 11  1  0  0  0  0
  1 12  1  0  0  0  0
  2  6  1  0  0  0  0
  2 13  1  0  0  0  0
  2 14  1  0  0  0  0
  3  4  1  0  0  0  0
  3  5  1  0  0  0  0
  3 15  1  0  0  0  0
  3 16  1  0  0  0  0
  4 10  1  6  0  0  0
  4 17  1  0  0  0  0
  5  6  1  0  0  0  0
  5 18  1  0  0  0  0
  5 19  1  0  0  0  0
  6  7  1  1  0  0  0
  6 20  1  0  0  0  0
  7  8  2  0  0  0  0
  7  9  1  0  0  0  0
 10 21  1  0  0  0  0
 10 22  1  0  0  0  0
 10 23  1  0  0  0  0
M  END
> <Energy>
2.2362

> <Ring Energy>
None

$$$$
o7_mol_1

Vconf v2.1
 23 23  0  0  0  0  0  0  0  0999 V2000
   -0.1106    0.6467    0.2422 C   0  0  0  0  0  0  0  0  0  0  0
    1.1663   -0.0532   -0.2522 C   0  0  0  0  0  0  0  0  0  0  0
   -1.1712    0.3447   -2.0242 C   0  0  0  0  0  0  0  0  0  0  0
   -1.3413    0.1174   -0.5122 C   0  0  1  0  0  0  0  0  0  0  0
    0.0984   -0.3586   -2.5344 C   0  0  0  0  0  0  0  0  0  0  0
    1.3702    0.0853   -1.7775 C   0  0  1  0  0  0  0  0  0  0  0
    1.8259    1.4326   -2.1709 C   0  0  0  0  0  0  0  0  0  0  0
    1.1230    2.4494   -1.9798 O   0  0  0  0  0  0  0  0  0  0  0
    2.9462    1.5752   -2.7118 O   0  5  0  0  0  0  0  0  0  0  0
   -2.6105    0.8223   -0.0122 C   0  0  0  0  0  0  0  0  0  0  0
   -0.2298    0.4481    1.3080 H   0  0  0  0  0  0  0  0  0  0  0
   -0.0217    1.7230    0.0951 H   0  0  0  0  0  0  0  0  0  0  0
    1.0906   -1.1141   -0.0095 H   0  0  0  0  0  0  0  0  0  0  0
    2.0288    0.3581    0.2756 H   0  0  0  0  0  0  0  0  0  0  0
   -2.0349   -0.0655   -2.5490 H   0  0  0  0  0  0  0  0  0  0  0
   -1.1104    1.4131   -2.2311 H   0  0  0  0  0  0  0  0  0  0  0
   -1.4409   -0.9527   -0.3237 H   0  0  0  0  0  0  0  0  0  0  0
    0.2149   -0.1605   -3.6012 H   0  0  0  0  0  0  0  0  0  0  0
   -0.0269   -1.4326   -2.3975 H   0  0  0  0  0  0  0  0  0  0  0
    2.1629   -0.6110   -2.0549 H   0  0  0  0  0  0  0  0  0  0  0
   -2.7325    0.6412    1.0569 H   0  0  0  0  0  0  0  0  0  0  0
   -2.5331    1.8960   -0.1876 H   0  0  0  0  0  0  0  0  0  0  0
   -3.4793    0.4320   -0.5413 H   0  0  0  0  0  0  0  0  0  0  0
  1  2  1  0  0  0  0
  1  4  1  0  0  0  0
  1 11  1  0  0  0  0
  1 12  1  0  0  0  0
  2  6  1  0  0  0  0
  2 13  1  0  0  0  0
  2 14  1  0  0  0  0
  3  4  1  0  0  0  0
  3  5  1  0  0  0  0
  3 15  1  0  0  0  0
  3 16  1  0  0  0  0
  4 10  1  6  0  0  0
  4 17  1  0  0  0  0
  5  6  1  0  0  0  0
  5 18  1  0  0  0  0
  5 19  1  0  0  0  0
  6  7  1  1  0  0  0
  6 20  1  0  0  0  0
  7  8  2  0  0  0  0
  7  9  1  0  0  0  0
 10 21  1  0  0  0  0
 10 22  1  0  0  0  0
 10 23  1  0  0  0  0
M  END
> <Energy>
3.3641

> <Ring Energy>
None

$$$$
o7_mol_1

Vconf v2.1
 23 23  0  0  0  0  0  0  0  0999 V2000
   -0.1035    0.4953    0.2589 C   0  0  0  0  0  0  0  0  0  0  0
    1.1074    1.1872   -0.3891 C   0  0  0  0  0  0  0  0  0  0  0
   -1.1641    0.1961   -2.0078 C   0  0  0  0  0  0  0  0  0  0  0
   -1.3704    0.7301   -0.5798 C   0  0  1  0  0  0  0  0  0  0  0
    0.0392    0.8873   -2.6719 C   0  0  0  0  0  0  0  0  0  0  0
    1.3391    0.7398   -1.8497 C   0  0  1  0  0  0  0  0  0  0  0
    1.9230   -0.6121   -1.9452 C   0  0  0  0  0  0  0  0  0  0  0
    1.3165   -1.6242   -1.5301 O   0  0  0  0  0  0  0  0  0  0  0
    3.0572   -0.7634   -2.4536 O   0  5  0  0  0  0  0  0  0  0  0
   -2.5731    0.0353    0.0747 C   0  0  0  0  0  0  0  0  0  0  0
   -0.2517    0.9091    1.2571 H   0  0  0  0  0  0  0  0  0  0  0
    0.0874   -0.5741    0.3487 H   0  0  0  0  0  0  0  0  0  0  0
    0.9301    2.2637   -0.3824 H   0  0  0  0  0  0  0  0  0  0  0
    1.9991    0.9833    0.2066 H   0  0  0  0  0  0  0  0  0  0  0
   -2.0570    0.3995   -2.6003 H   0  0  0  0  0  0  0  0  0  0  0
   -1.0014   -0.8812   -1.9779 H   0  0  0  0  0  0  0  0  0  0  0
   -1.5717    1.8014   -0.6277 H   0  0  0  0  0  0  0  0  0  0  0
    0.1848    0.4735   -3.6711 H   0  0  0  0  0  0  0  0  0  0  0
   -0.1875    1.9488   -2.7707 H   0  0  0  0  0  0  0  0  0  0  0
    2.0659    1.4301   -2.2802 H   0  0  0  0  0  0  0  0  0  0  0
   -2.7225    0.4324    1.0800 H   0  0  0  0  0  0  0  0  0  0  0
   -2.3937   -1.0388    0.1364 H   0  0  0  0  0  0  0  0  0  0  0
   -3.4691    0.2179   -0.5177 H   0  0  0  0  0  0  0  0  0  0  0
  1  2  1  0  0  0  0
  1  4  1  0  0  0  0
  1 11  1  0  0  0  0
  1 12  1  0  0  0  0
  2  6  1  0  0  0  0
  2 13  1  0  0  0  0
  2 14  1  0  0  0  0
  3  4  1  0  0  0  0
  3  5  1  0  0  0  0
  3 15  1  0  0  0  0
  3 16  1  0  0  0  0
  4 10  1  6  0  0  0
  4 17  1  0  0  0  0
  5  6  1  0  0  0  0
  5 18  1  0  0  0  0
  5 19  1  0  0  0  0
  6  7  1  1  0  0  0
  6 20  1  0  0  0  0
  7  8  2  0  0  0  0
  7  9  1  0  0  0  0
 10 21  1  0  0  0  0
 10 22  1  0  0  0  0
 10 23  1  0  0  0  0
M  END
> <Energy>
3.3641

> <Ring Energy>
None

$$$$
