

verachem
  8  8  0  0  0  0  0  0  0  0999 V2000
   -0.1080   -1.0524    0.0000 C   0  0  0  0  0  0  0  0  0  0  0  0
   -0.9171   -0.4646    0.0000 C   0  0  0  0  0  0  0  0  0  0  0  0
   -1.4171   -2.0035    0.0000 C   0  0  0  0  0  0  0  0  0  0  0  0
   -1.7261   -1.0524    0.0000 C   0  0  0  0  0  0  0  0  0  0  0  0
   -0.4171   -2.0035    0.0000 C   0  0  0  0  0  0  0  0  0  0  0  0
   -0.9619    0.7346    0.0000 C   0  0  0  0  0  0  0  0  0  0  0  0
   -1.7588    1.6318    0.0000 O   0  0  0  0  0  0  0  0  0  0  0  0
    0.1238    1.2458    0.0000 O   0  5  0  0  0  0  0  0  0  0  0  0
  3  4  1  0  0  0  0
  1  5  1  0  0  0  0
  1  2  1  0  0  0  0
  2  6  1  0  0  0  0
  6  8  1  0  0  0  0
  6  7  2  0  0  0  0
  3  5  1  0  0  0  0
  2  4  1  0  0  0  0
M  END
$$$$
