o8

Vconf v2.1
 17 17  0  0  0  0  0  0  0  0999 V2000
   -0.4790   -0.5200    0.3580 C   0  0  0  0  0  0  0  0  0  0  0
   -1.4780   -0.3030   -0.7850 C   0  0  0  0  0  0  0  0  0  0  0
    0.3930    1.1840   -1.1830 C   0  0  0  0  0  0  0  0  0  0  0
   -1.1360    1.1100   -1.2740 C   0  0  0  0  0  0  0  0  0  0  0
    0.8140    0.1360   -0.1400 C   0  0  0  0  0  0  0  0  0  0  0
   -2.8830   -0.4570   -0.3730 C   0  0  0  0  0  0  0  0  0  0  0
   -3.3650    0.2570    0.5340 O   0  0  0  0  0  0  0  0  0  0  0
   -3.6100   -1.3090   -0.9310 O   0  5  0  0  0  0  0  0  0  0  0
   -0.8160   -0.0100    1.2630 H   0  0  0  0  0  0  0  0  0  0  0
   -0.3320   -1.5820    0.5590 H   0  0  0  0  0  0  0  0  0  0  0
   -1.2550   -1.0120   -1.5840 H   0  0  0  0  0  0  0  0  0  0  0
    0.8320    0.9350   -2.1490 H   0  0  0  0  0  0  0  0  0  0  0
    0.7090    2.1830   -0.8800 H   0  0  0  0  0  0  0  0  0  0  0
   -1.5720    1.8600   -0.6110 H   0  0  0  0  0  0  0  0  0  0  0
   -1.4790    1.2700   -2.2960 H   0  0  0  0  0  0  0  0  0  0  0
    1.3470    0.6050    0.6880 H   0  0  0  0  0  0  0  0  0  0  0
    1.4500   -0.6140   -0.6120 H   0  0  0  0  0  0  0  0  0  0  0
  1  2  1  0  0  0  0
  1  5  1  0  0  0  0
  1  9  1  0  0  0  0
  1 10  1  0  0  0  0
  2  4  1  0  0  0  0
  2  6  1  0  0  0  0
  2 11  1  0  0  0  0
  3  4  1  0  0  0  0
  3  5  1  0  0  0  0
  3 12  1  0  0  0  0
  3 13  1  0  0  0  0
  4 14  1  0  0  0  0
  4 15  1  0  0  0  0
  5 16  1  0  0  0  0
  5 17  1  0  0  0  0
  6  7  2  0  0  0  0
  6  8  1  0  0  0  0
M  END
> <Energy>
8.9695

> <Ring Energy>
None

> <VC.Vconf.Error>
N/A

> <Time>
0.7644049

> <MaxConf>
N/A

$$$$
