

verachem
 10 10  0  0  0  0  0  0  0  0999 V2000
    0.1640   -0.7764    0.0000 C   0  0  0  0  0  0  0  0  0  0  0  0
   -0.0600    0.2036    0.0000 C   0  0  0  0  0  0  0  0  0  0  0  0
   -1.8706    0.2036    0.0000 C   0  0  0  0  0  0  0  0  0  0  0  0
   -2.0947   -0.7764    0.0000 C   0  0  0  0  0  0  0  0  0  0  0  0
   -0.4627   -1.5631    0.0000 C   0  0  0  0  0  0  0  0  0  0  0  0
   -1.4680   -1.5631    0.0000 C   0  0  0  0  0  0  0  0  0  0  0  0
   -0.9653    0.6395    0.0000 C   0  0  0  0  0  0  0  0  0  0  0  0
   -0.9653    1.8395    0.0000 C   0  0  0  0  0  0  0  0  0  0  0  0
   -1.8425    2.6585    0.0000 O   0  0  0  0  0  0  0  0  0  0  0  0
   -0.0188    2.5771    0.0000 O   0  5  0  0  0  0  0  0  0  0  0  0
  1  2  1  0  0  0  0
  3  7  1  0  0  0  0
  7  8  1  0  0  0  0
  5  6  1  0  0  0  0
  2  7  1  0  0  0  0
  1  5  1  0  0  0  0
  3  4  1  0  0  0  0
  8 10  1  0  0  0  0
  8  9  2  0  0  0  0
  4  6  1  0  0  0  0
M  END
$$$$
