o9_mol_1

Vconf v2.1
 23 23  0  0  0  0  0  0  0  0999 V2000
   -0.2580   -0.7110   -0.7090 C   0  0  0  0  0  0  0  0  0  0  0
   -0.3920    0.5590    0.1510 C   0  0  0  0  0  0  0  0  0  0  0
   -2.1090   -0.5170    1.7470 C   0  0  0  0  0  0  0  0  0  0  0
   -2.5140   -1.7430    0.9100 C   0  0  0  0  0  0  0  0  0  0  0
   -0.0390   -1.9630    0.1580 C   0  0  0  0  0  0  0  0  0  0  0
   -1.3420   -2.6750    0.5580 C   0  0  0  0  0  0  0  0  0  0  0
   -1.7590    0.6980    0.8560 C   0  0  0  0  0  0  0  0  0  0  0
   -1.7710    1.9340    1.6580 C   0  0  0  0  0  0  0  0  0  0  0
   -0.9840    2.0770    2.6200 O   0  0  0  0  0  0  0  0  0  0  0
   -2.5740    2.8540    1.3870 O   0  5  0  0  0  0  0  0  0  0  0
   -1.1330   -0.8330   -1.3480 H   0  0  0  0  0  0  0  0  0  0  0
    0.6190   -0.5870   -1.3460 H   0  0  0  0  0  0  0  0  0  0  0
   -0.2570    1.4190   -0.5080 H   0  0  0  0  0  0  0  0  0  0  0
    0.4100    0.5700    0.8920 H   0  0  0  0  0  0  0  0  0  0  0
   -1.2710   -0.7630    2.4010 H   0  0  0  0  0  0  0  0  0  0  0
   -2.9670   -0.2570    2.3710 H   0  0  0  0  0  0  0  0  0  0  0
   -2.9990   -1.4130   -0.0090 H   0  0  0  0  0  0  0  0  0  0  0
   -3.2390   -2.3260    1.4800 H   0  0  0  0  0  0  0  0  0  0  0
    0.5690   -2.6720   -0.4040 H   0  0  0  0  0  0  0  0  0  0  0
    0.5110   -1.6890    1.0590 H   0  0  0  0  0  0  0  0  0  0  0
   -1.1290   -3.3090    1.4200 H   0  0  0  0  0  0  0  0  0  0  0
   -1.6570   -3.3150   -0.2660 H   0  0  0  0  0  0  0  0  0  0  0
   -2.5270    0.7930    0.0870 H   0  0  0  0  0  0  0  0  0  0  0
  1  2  1  0  0  0  0
  1  5  1  0  0  0  0
  1 11  1  0  0  0  0
  1 12  1  0  0  0  0
  2  7  1  0  0  0  0
  2 13  1  0  0  0  0
  2 14  1  0  0  0  0
  3  4  1  0  0  0  0
  3  7  1  0  0  0  0
  3 15  1  0  0  0  0
  3 16  1  0  0  0  0
  4  6  1  0  0  0  0
  4 17  1  0  0  0  0
  4 18  1  0  0  0  0
  5  6  1  0  0  0  0
  5 19  1  0  0  0  0
  5 20  1  0  0  0  0
  6 21  1  0  0  0  0
  6 22  1  0  0  0  0
  7  8  1  0  0  0  0
  7 23  1  0  0  0  0
  8  9  2  0  0  0  0
  8 10  1  0  0  0  0
M  END
> <Energy>
8.3129

> <Ring Energy>
None

$$$$
o9_mol_1

Vconf v2.1
 23 23  0  0  0  0  0  0  0  0999 V2000
    0.3007   -0.8163    0.0152 C   0  0  0  0  0  0  0  0  0  0  0
   -0.3793    0.5566    0.1675 C   0  0  0  0  0  0  0  0  0  0  0
   -2.5047   -0.4424    1.2340 C   0  0  0  0  0  0  0  0  0  0  0
   -1.9826   -1.8431    1.5988 C   0  0  0  0  0  0  0  0  0  0  0
   -0.6430   -1.8492   -0.6249 C   0  0  0  0  0  0  0  0  0  0  0
   -1.4671   -2.6514    0.3959 C   0  0  0  0  0  0  0  0  0  0  0
   -1.3933    0.6291    1.3300 C   0  0  0  0  0  0  0  0  0  0  0
   -1.9905    1.9754    1.3735 C   0  0  0  0  0  0  0  0  0  0  0
   -2.6815    2.3969    0.4195 O   0  0  0  0  0  0  0  0  0  0  0
   -1.8158    2.7111    2.3699 O   0  5  0  0  0  0  0  0  0  0  0
    0.6631   -1.1715    0.9803 H   0  0  0  0  0  0  0  0  0  0  0
    1.1572   -0.6884   -0.6484 H   0  0  0  0  0  0  0  0  0  0  0
    0.4047    1.2943    0.3498 H   0  0  0  0  0  0  0  0  0  0  0
   -0.8737    0.8119   -0.7721 H   0  0  0  0  0  0  0  0  0  0  0
   -2.9423   -0.4480    0.2345 H   0  0  0  0  0  0  0  0  0  0  0
   -3.2905   -0.1960    1.9517 H   0  0  0  0  0  0  0  0  0  0  0
   -1.1874   -1.7544    2.3393 H   0  0  0  0  0  0  0  0  0  0  0
   -2.7988   -2.4090    2.0507 H   0  0  0  0  0  0  0  0  0  0  0
   -0.0446   -2.5563   -1.1994 H   0  0  0  0  0  0  0  0  0  0  0
   -1.3201   -1.3439   -1.3146 H   0  0  0  0  0  0  0  0  0  0  0
   -2.3218   -3.0842   -0.1262 H   0  0  0  0  0  0  0  0  0  0  0
   -0.8523   -3.4667    0.7771 H   0  0  0  0  0  0  0  0  0  0  0
   -0.8484    0.4766    2.2628 H   0  0  0  0  0  0  0  0  0  0  0
  1  2  1  0  0  0  0
  1  5  1  0  0  0  0
  1 11  1  0  0  0  0
  1 12  1  0  0  0  0
  2  7  1  0  0  0  0
  2 13  1  0  0  0  0
  2 14  1  0  0  0  0
  3  4  1  0  0  0  0
  3  7  1  0  0  0  0
  3 15  1  0  0  0  0
  3 16  1  0  0  0  0
  4  6  1  0  0  0  0
  4 17  1  0  0  0  0
  4 18  1  0  0  0  0
  5  6  1  0  0  0  0
  5 19  1  0  0  0  0
  5 20  1  0  0  0  0
  6 21  1  0  0  0  0
  6 22  1  0  0  0  0
  7  8  1  0  0  0  0
  7 23  1  0  0  0  0
  8  9  2  0  0  0  0
  8 10  1  0  0  0  0
M  END
> <Energy>
8.3129

> <Ring Energy>
None

$$$$
o9_mol_1

Vconf v2.1
 23 23  0  0  0  0  0  0  0  0999 V2000
   -0.2798   -0.6164   -0.7573 C   0  0  0  0  0  0  0  0  0  0  0
   -0.3151    0.3859    0.4105 C   0  0  0  0  0  0  0  0  0  0  0
   -2.4066   -0.4580    1.6588 C   0  0  0  0  0  0  0  0  0  0  0
   -2.4242   -1.8024    0.9109 C   0  0  0  0  0  0  0  0  0  0  0
   -0.1754   -2.0856   -0.3163 C   0  0  0  0  0  0  0  0  0  0  0
   -1.0353   -2.4655    0.9010 C   0  0  0  0  0  0  0  0  0  0  0
   -1.7623    0.6950    0.8582 C   0  0  0  0  0  0  0  0  0  0  0
   -1.7887    1.9277    1.6671 C   0  0  0  0  0  0  0  0  0  0  0
   -1.1629    1.9933    2.7489 O   0  0  0  0  0  0  0  0  0  0  0
   -2.4333    2.9257    1.2733 O   0  5  0  0  0  0  0  0  0  0  0
   -1.1705   -0.4883   -1.3737 H   0  0  0  0  0  0  0  0  0  0  0
    0.5899   -0.3945   -1.3763 H   0  0  0  0  0  0  0  0  0  0  0
    0.1459    1.3102    0.0534 H   0  0  0  0  0  0  0  0  0  0  0
    0.2723    0.0119    1.2500 H   0  0  0  0  0  0  0  0  0  0  0
   -1.8825   -0.5876    2.6076 H   0  0  0  0  0  0  0  0  0  0  0
   -3.4412   -0.1871    1.8770 H   0  0  0  0  0  0  0  0  0  0  0
   -2.7937   -1.6687   -0.1058 H   0  0  0  0  0  0  0  0  0  0  0
   -3.1084   -2.4663    1.4402 H   0  0  0  0  0  0  0  0  0  0  0
   -0.4685   -2.7123   -1.1596 H   0  0  0  0  0  0  0  0  0  0  0
    0.8652   -2.3046   -0.0750 H   0  0  0  0  0  0  0  0  0  0  0
   -0.5008   -2.2018    1.8136 H   0  0  0  0  0  0  0  0  0  0  0
   -1.1680   -3.5481    0.8907 H   0  0  0  0  0  0  0  0  0  0  0
   -2.3681    0.8684   -0.0320 H   0  0  0  0  0  0  0  0  0  0  0
  1  2  1  0  0  0  0
  1  5  1  0  0  0  0
  1 11  1  0  0  0  0
  1 12  1  0  0  0  0
  2  7  1  0  0  0  0
  2 13  1  0  0  0  0
  2 14  1  0  0  0  0
  3  4  1  0  0  0  0
  3  7  1  0  0  0  0
  3 15  1  0  0  0  0
  3 16  1  0  0  0  0
  4  6  1  0  0  0  0
  4 17  1  0  0  0  0
  4 18  1  0  0  0  0
  5  6  1  0  0  0  0
  5 19  1  0  0  0  0
  5 20  1  0  0  0  0
  6 21  1  0  0  0  0
  6 22  1  0  0  0  0
  7  8  1  0  0  0  0
  7 23  1  0  0  0  0
  8  9  2  0  0  0  0
  8 10  1  0  0  0  0
M  END
> <Energy>
8.3131

> <Ring Energy>
None

$$$$
o9_mol_1

Vconf v2.1
 23 23  0  0  0  0  0  0  0  0999 V2000
    0.3284   -0.7088   -0.0060 C   0  0  0  0  0  0  0  0  0  0  0
   -0.6917    0.4431   -0.0548 C   0  0  0  0  0  0  0  0  0  0  0
   -2.4527   -0.4510    1.6019 C   0  0  0  0  0  0  0  0  0  0  0
   -1.8918   -1.8832    1.5686 C   0  0  0  0  0  0  0  0  0  0  0
   -0.2516   -2.0740   -0.4104 C   0  0  0  0  0  0  0  0  0  0  0
   -1.6620   -2.3703    0.1268 C   0  0  0  0  0  0  0  0  0  0  0
   -1.4006    0.6401    1.3050 C   0  0  0  0  0  0  0  0  0  0  0
   -2.0434    1.9664    1.3525 C   0  0  0  0  0  0  0  0  0  0  0
   -2.9492    2.2646    0.5421 O   0  0  0  0  0  0  0  0  0  0  0
   -1.6816    2.8116    2.2018 O   0  5  0  0  0  0  0  0  0  0  0
    0.7492   -0.7798    0.9978 H   0  0  0  0  0  0  0  0  0  0  0
    1.1421   -0.4783   -0.6942 H   0  0  0  0  0  0  0  0  0  0  0
   -0.1362    1.3530   -0.2951 H   0  0  0  0  0  0  0  0  0  0  0
   -1.4234    0.2694   -0.8448 H   0  0  0  0  0  0  0  0  0  0  0
   -3.2749   -0.3762    0.8876 H   0  0  0  0  0  0  0  0  0  0  0
   -2.8548   -0.2761    2.6014 H   0  0  0  0  0  0  0  0  0  0  0
   -0.9700   -1.9456    2.1471 H   0  0  0  0  0  0  0  0  0  0  0
   -2.6313   -2.5388    2.0296 H   0  0  0  0  0  0  0  0  0  0  0
    0.4279   -2.8484   -0.0522 H   0  0  0  0  0  0  0  0  0  0  0
   -0.2874   -2.1296   -1.4989 H   0  0  0  0  0  0  0  0  0  0  0
   -2.4000   -1.9135   -0.5325 H   0  0  0  0  0  0  0  0  0  0  0
   -1.8095   -3.4507    0.0982 H   0  0  0  0  0  0  0  0  0  0  0
   -0.6476    0.6072    2.0934 H   0  0  0  0  0  0  0  0  0  0  0
  1  2  1  0  0  0  0
  1  5  1  0  0  0  0
  1 11  1  0  0  0  0
  1 12  1  0  0  0  0
  2  7  1  0  0  0  0
  2 13  1  0  0  0  0
  2 14  1  0  0  0  0
  3  4  1  0  0  0  0
  3  7  1  0  0  0  0
  3 15  1  0  0  0  0
  3 16  1  0  0  0  0
  4  6  1  0  0  0  0
  4 17  1  0  0  0  0
  4 18  1  0  0  0  0
  5  6  1  0  0  0  0
  5 19  1  0  0  0  0
  5 20  1  0  0  0  0
  6 21  1  0  0  0  0
  6 22  1  0  0  0  0
  7  8  1  0  0  0  0
  7 23  1  0  0  0  0
  8  9  2  0  0  0  0
  8 10  1  0  0  0  0
M  END
> <Energy>
8.3131

> <Ring Energy>
None

$$$$
o9_mol_1

Vconf v2.1
 23 23  0  0  0  0  0  0  0  0999 V2000
   -0.2970   -0.6846   -0.7747 C   0  0  0  0  0  0  0  0  0  0  0
   -0.3707    0.4735    0.2360 C   0  0  0  0  0  0  0  0  0  0  0
   -2.6696   -0.4543    1.0104 C   0  0  0  0  0  0  0  0  0  0  0
   -1.9047   -1.6090    1.6824 C   0  0  0  0  0  0  0  0  0  0  0
   -0.0679   -2.0350   -0.0733 C   0  0  0  0  0  0  0  0  0  0  0
   -1.3125   -2.5790    0.6449 C   0  0  0  0  0  0  0  0  0  0  0
   -1.8080    0.7942    0.7060 C   0  0  0  0  0  0  0  0  0  0  0
   -1.7661    1.7109    1.8595 C   0  0  0  0  0  0  0  0  0  0  0
   -1.2520    1.3546    2.9428 O   0  0  0  0  0  0  0  0  0  0  0
   -2.2513    2.8618    1.7670 O   0  5  0  0  0  0  0  0  0  0  0
   -1.2012   -0.7213   -1.3836 H   0  0  0  0  0  0  0  0  0  0  0
    0.5549   -0.5046   -1.4315 H   0  0  0  0  0  0  0  0  0  0  0
    0.0318    1.3685   -0.2429 H   0  0  0  0  0  0  0  0  0  0  0
    0.2646    0.2386    1.0923 H   0  0  0  0  0  0  0  0  0  0  0
   -3.5028   -0.1695    1.6556 H   0  0  0  0  0  0  0  0  0  0  0
   -3.0982   -0.8148    0.0735 H   0  0  0  0  0  0  0  0  0  0  0
   -2.6131   -2.1697    2.2934 H   0  0  0  0  0  0  0  0  0  0  0
   -1.1191   -1.2243    2.3343 H   0  0  0  0  0  0  0  0  0  0  0
    0.2295   -2.7651   -0.8266 H   0  0  0  0  0  0  0  0  0  0  0
    0.7462   -1.9368    0.6466 H   0  0  0  0  0  0  0  0  0  0  0
   -2.0743   -2.8273   -0.0956 H   0  0  0  0  0  0  0  0  0  0  0
   -1.0275   -3.4971    1.1602 H   0  0  0  0  0  0  0  0  0  0  0
   -2.3030    1.3213   -0.1119 H   0  0  0  0  0  0  0  0  0  0  0
  1  2  1  0  0  0  0
  1  5  1  0  0  0  0
  1 11  1  0  0  0  0
  1 12  1  0  0  0  0
  2  7  1  0  0  0  0
  2 13  1  0  0  0  0
  2 14  1  0  0  0  0
  3  4  1  0  0  0  0
  3  7  1  0  0  0  0
  3 15  1  0  0  0  0
  3 16  1  0  0  0  0
  4  6  1  0  0  0  0
  4 17  1  0  0  0  0
  4 18  1  0  0  0  0
  5  6  1  0  0  0  0
  5 19  1  0  0  0  0
  5 20  1  0  0  0  0
  6 21  1  0  0  0  0
  6 22  1  0  0  0  0
  7  8  1  0  0  0  0
  7 23  1  0  0  0  0
  8  9  2  0  0  0  0
  8 10  1  0  0  0  0
M  END
> <Energy>
8.6695

> <Ring Energy>
None

$$$$
o9_mol_1

Vconf v2.1
 23 23  0  0  0  0  0  0  0  0999 V2000
    0.3381   -0.7589    0.0102 C   0  0  0  0  0  0  0  0  0  0  0
   -0.5542    0.4949    0.0093 C   0  0  0  0  0  0  0  0  0  0  0
   -1.8821   -0.5464    1.9836 C   0  0  0  0  0  0  0  0  0  0  0
   -2.4792   -1.5418    0.9725 C   0  0  0  0  0  0  0  0  0  0  0
   -0.4197   -1.9939   -0.5080 C   0  0  0  0  0  0  0  0  0  0  0
   -1.4332   -2.5649    0.4957 C   0  0  0  0  0  0  0  0  0  0  0
   -1.2876    0.7333    1.3490 C   0  0  0  0  0  0  0  0  0  0  0
   -2.3165    1.7752    1.1794 C   0  0  0  0  0  0  0  0  0  0  0
   -3.2937    1.5932    0.4199 O   0  0  0  0  0  0  0  0  0  0  0
   -2.2239    2.8586    1.8009 O   0  5  0  0  0  0  0  0  0  0  0
    0.7347   -0.9475    1.0085 H   0  0  0  0  0  0  0  0  0  0  0
    1.1749   -0.5770   -0.6654 H   0  0  0  0  0  0  0  0  0  0  0
    0.0797    1.3629   -0.1837 H   0  0  0  0  0  0  0  0  0  0  0
   -1.2735    0.4184   -0.8084 H   0  0  0  0  0  0  0  0  0  0  0
   -2.6607   -0.2679    2.6961 H   0  0  0  0  0  0  0  0  0  0  0
   -1.0951   -1.0490    2.5488 H   0  0  0  0  0  0  0  0  0  0  0
   -3.2759   -2.0922    1.4744 H   0  0  0  0  0  0  0  0  0  0  0
   -2.9108   -1.0149    0.1203 H   0  0  0  0  0  0  0  0  0  0  0
    0.3092   -2.7744   -0.7281 H   0  0  0  0  0  0  0  0  0  0  0
   -0.9377   -1.7399   -1.4342 H   0  0  0  0  0  0  0  0  0  0  0
   -0.8978   -2.9649    1.3582 H   0  0  0  0  0  0  0  0  0  0  0
   -1.9583   -3.3883    0.0100 H   0  0  0  0  0  0  0  0  0  0  0
   -0.5489    1.1163    2.0557 H   0  0  0  0  0  0  0  0  0  0  0
  1  2  1  0  0  0  0
  1  5  1  0  0  0  0
  1 11  1  0  0  0  0
  1 12  1  0  0  0  0
  2  7  1  0  0  0  0
  2 13  1  0  0  0  0
  2 14  1  0  0  0  0
  3  4  1  0  0  0  0
  3  7  1  0  0  0  0
  3 15  1  0  0  0  0
  3 16  1  0  0  0  0
  4  6  1  0  0  0  0
  4 17  1  0  0  0  0
  4 18  1  0  0  0  0
  5  6  1  0  0  0  0
  5 19  1  0  0  0  0
  5 20  1  0  0  0  0
  6 21  1  0  0  0  0
  6 22  1  0  0  0  0
  7  8  1  0  0  0  0
  7 23  1  0  0  0  0
  8  9  2  0  0  0  0
  8 10  1  0  0  0  0
M  END
> <Energy>
8.6695

> <Ring Energy>
None

$$$$
o9_mol_1

Vconf v2.1
 23 23  0  0  0  0  0  0  0  0999 V2000
    0.2149   -0.5670    0.0859 C   0  0  0  0  0  0  0  0  0  0  0
   -0.8670    0.4723   -0.2600 C   0  0  0  0  0  0  0  0  0  0  0
   -2.2808   -0.5070    1.6864 C   0  0  0  0  0  0  0  0  0  0  0
   -2.5337   -1.7478    0.8122 C   0  0  0  0  0  0  0  0  0  0  0
   -0.2225   -1.9910   -0.3004 C   0  0  0  0  0  0  0  0  0  0  0
   -1.2624   -2.6001    0.6534 C   0  0  0  0  0  0  0  0  0  0  0
   -1.8790    0.7474    0.8778 C   0  0  0  0  0  0  0  0  0  0  0
   -1.3871    1.7961    1.7901 C   0  0  0  0  0  0  0  0  0  0  0
   -0.3472    1.6237    2.4634 O   0  0  0  0  0  0  0  0  0  0  0
   -2.0066    2.8784    1.8958 O   0  5  0  0  0  0  0  0  0  0  0
    1.1080   -0.3274   -0.4930 H   0  0  0  0  0  0  0  0  0  0  0
    0.4702   -0.5212    1.1445 H   0  0  0  0  0  0  0  0  0  0  0
   -1.4176    0.1284   -1.1362 H   0  0  0  0  0  0  0  0  0  0  0
   -0.3743    1.4063   -0.5364 H   0  0  0  0  0  0  0  0  0  0  0
   -1.5123   -0.7447    2.4251 H   0  0  0  0  0  0  0  0  0  0  0
   -3.2021   -0.2765    2.2240 H   0  0  0  0  0  0  0  0  0  0  0
   -2.9217   -1.4572   -0.1649 H   0  0  0  0  0  0  0  0  0  0  0
   -3.2830   -2.3634    1.3106 H   0  0  0  0  0  0  0  0  0  0  0
    0.6587   -2.6331   -0.2881 H   0  0  0  0  0  0  0  0  0  0  0
   -0.6243   -1.9850   -1.3135 H   0  0  0  0  0  0  0  0  0  0  0
   -0.8052   -2.7544    1.6307 H   0  0  0  0  0  0  0  0  0  0  0
   -1.5519   -3.5731    0.2553 H   0  0  0  0  0  0  0  0  0  0  0
   -2.7850    1.1273    0.4024 H   0  0  0  0  0  0  0  0  0  0  0
  1  2  1  0  0  0  0
  1  5  1  0  0  0  0
  1 11  1  0  0  0  0
  1 12  1  0  0  0  0
  2  7  1  0  0  0  0
  2 13  1  0  0  0  0
  2 14  1  0  0  0  0
  3  4  1  0  0  0  0
  3  7  1  0  0  0  0
  3 15  1  0  0  0  0
  3 16  1  0  0  0  0
  4  6  1  0  0  0  0
  4 17  1  0  0  0  0
  4 18  1  0  0  0  0
  5  6  1  0  0  0  0
  5 19  1  0  0  0  0
  5 20  1  0  0  0  0
  6 21  1  0  0  0  0
  6 22  1  0  0  0  0
  7  8  1  0  0  0  0
  7 23  1  0  0  0  0
  8  9  2  0  0  0  0
  8 10  1  0  0  0  0
M  END
> <Energy>
8.6696

> <Ring Energy>
None

$$$$
o9_mol_1

Vconf v2.1
 23 23  0  0  0  0  0  0  0  0999 V2000
   -0.2192   -0.4909   -0.5252 C   0  0  0  0  0  0  0  0  0  0  0
   -0.1387    0.3446    0.7654 C   0  0  0  0  0  0  0  0  0  0  0
   -2.5470   -0.4604    1.3116 C   0  0  0  0  0  0  0  0  0  0  0
   -1.9595   -1.8485    1.6207 C   0  0  0  0  0  0  0  0  0  0  0
   -0.1709   -2.0001   -0.2277 C   0  0  0  0  0  0  0  0  0  0  0
   -1.4828   -2.5615    0.3431 C   0  0  0  0  0  0  0  0  0  0  0
   -1.5103    0.6828    1.3970 C   0  0  0  0  0  0  0  0  0  0  0
   -2.0754    1.9168    0.8210 C   0  0  0  0  0  0  0  0  0  0  0
   -2.3751    1.9793   -0.3918 O   0  0  0  0  0  0  0  0  0  0  0
   -2.2566    2.9222    1.5438 O   0  5  0  0  0  0  0  0  0  0  0
    0.6500   -0.2471   -1.1378 H   0  0  0  0  0  0  0  0  0  0  0
   -1.1173   -0.2429   -1.0906 H   0  0  0  0  0  0  0  0  0  0  0
    0.4550   -0.1999    1.5004 H   0  0  0  0  0  0  0  0  0  0  0
    0.3940    1.2716    0.5453 H   0  0  0  0  0  0  0  0  0  0  0
   -3.0067   -0.4827    0.3211 H   0  0  0  0  0  0  0  0  0  0  0
   -3.3324   -0.2537    2.0406 H   0  0  0  0  0  0  0  0  0  0  0
   -1.1430   -1.7691    2.3395 H   0  0  0  0  0  0  0  0  0  0  0
   -2.7489   -2.4570    2.0627 H   0  0  0  0  0  0  0  0  0  0  0
    0.0392   -2.5245   -1.1604 H   0  0  0  0  0  0  0  0  0  0  0
    0.6415   -2.2069    0.4687 H   0  0  0  0  0  0  0  0  0  0  0
   -2.2604   -2.4993   -0.4182 H   0  0  0  0  0  0  0  0  0  0  0
   -1.3213   -3.6135    0.5799 H   0  0  0  0  0  0  0  0  0  0  0
   -1.3264    0.8716    2.4560 H   0  0  0  0  0  0  0  0  0  0  0
  1  2  1  0  0  0  0
  1  5  1  0  0  0  0
  1 11  1  0  0  0  0
  1 12  1  0  0  0  0
  2  7  1  0  0  0  0
  2 13  1  0  0  0  0
  2 14  1  0  0  0  0
  3  4  1  0  0  0  0
  3  7  1  0  0  0  0
  3 15  1  0  0  0  0
  3 16  1  0  0  0  0
  4  6  1  0  0  0  0
  4 17  1  0  0  0  0
  4 18  1  0  0  0  0
  5  6  1  0  0  0  0
  5 19  1  0  0  0  0
  5 20  1  0  0  0  0
  6 21  1  0  0  0  0
  6 22  1  0  0  0  0
  7  8  1  0  0  0  0
  7 23  1  0  0  0  0
  8  9  2  0  0  0  0
  8 10  1  0  0  0  0
M  END
> <Energy>
8.6696

> <Ring Energy>
None

$$$$
o9_mol_1

Vconf v2.1
 23 23  0  0  0  0  0  0  0  0999 V2000
    0.1023   -0.6201   -0.6140 C   0  0  0  0  0  0  0  0  0  0  0
   -0.2002    0.3672    0.5268 C   0  0  0  0  0  0  0  0  0  0  0
   -2.2077   -0.4519    1.8679 C   0  0  0  0  0  0  0  0  0  0  0
   -2.3544   -1.8884    1.3424 C   0  0  0  0  0  0  0  0  0  0  0
   -0.7687   -1.8866   -0.6448 C   0  0  0  0  0  0  0  0  0  0  0
   -1.0613   -2.4718    0.7469 C   0  0  0  0  0  0  0  0  0  0  0
   -1.7107    0.5599    0.8083 C   0  0  0  0  0  0  0  0  0  0  0
   -1.9650    1.9308    1.2895 C   0  0  0  0  0  0  0  0  0  0  0
   -1.4311    2.3451    2.3423 O   0  0  0  0  0  0  0  0  0  0  0
   -2.7189    2.6949    0.6463 O   0  5  0  0  0  0  0  0  0  0  0
   -0.0250   -0.1024   -1.5652 H   0  0  0  0  0  0  0  0  0  0  0
    1.1476   -0.9200   -0.5287 H   0  0  0  0  0  0  0  0  0  0  0
    0.2542    1.3189    0.2433 H   0  0  0  0  0  0  0  0  0  0  0
    0.2955    0.0236    1.4356 H   0  0  0  0  0  0  0  0  0  0  0
   -1.5253   -0.4537    2.7187 H   0  0  0  0  0  0  0  0  0  0  0
   -3.1926   -0.1436    2.2242 H   0  0  0  0  0  0  0  0  0  0  0
   -3.1445   -1.9165    0.5914 H   0  0  0  0  0  0  0  0  0  0  0
   -2.6567   -2.5199    2.1780 H   0  0  0  0  0  0  0  0  0  0  0
   -1.7087   -1.6628   -1.1515 H   0  0  0  0  0  0  0  0  0  0  0
   -0.2418   -2.6389   -1.2322 H   0  0  0  0  0  0  0  0  0  0  0
   -1.2054   -3.5476    0.6356 H   0  0  0  0  0  0  0  0  0  0  0
   -0.2211   -2.3028    1.4201 H   0  0  0  0  0  0  0  0  0  0  0
   -2.2724    0.4177   -0.1158 H   0  0  0  0  0  0  0  0  0  0  0
  1  2  1  0  0  0  0
  1  5  1  0  0  0  0
  1 11  1  0  0  0  0
  1 12  1  0  0  0  0
  2  7  1  0  0  0  0
  2 13  1  0  0  0  0
  2 14  1  0  0  0  0
  3  4  1  0  0  0  0
  3  7  1  0  0  0  0
  3 15  1  0  0  0  0
  3 16  1  0  0  0  0
  4  6  1  0  0  0  0
  4 17  1  0  0  0  0
  4 18  1  0  0  0  0
  5  6  1  0  0  0  0
  5 19  1  0  0  0  0
  5 20  1  0  0  0  0
  6 21  1  0  0  0  0
  6 22  1  0  0  0  0
  7  8  1  0  0  0  0
  7 23  1  0  0  0  0
  8  9  2  0  0  0  0
  8 10  1  0  0  0  0
M  END
> <Energy>
8.6949

> <Ring Energy>
None

$$$$
o9_mol_1

Vconf v2.1
 23 23  0  0  0  0  0  0  0  0999 V2000
    0.1853   -0.6289   -0.5194 C   0  0  0  0  0  0  0  0  0  0  0
   -0.8901    0.4407   -0.2604 C   0  0  0  0  0  0  0  0  0  0  0
   -2.5602   -0.4144    1.4656 C   0  0  0  0  0  0  0  0  0  0  0
   -2.1940   -1.9055    1.5255 C   0  0  0  0  0  0  0  0  0  0  0
   -0.0188   -1.9665    0.2107 C   0  0  0  0  0  0  0  0  0  0  0
   -1.4853   -2.4267    0.2632 C   0  0  0  0  0  0  0  0  0  0  0
   -1.3545    0.5220    1.2147 C   0  0  0  0  0  0  0  0  0  0  0
   -1.7374    1.9065    1.5492 C   0  0  0  0  0  0  0  0  0  0  0
   -2.6656    2.4766    0.9339 O   0  0  0  0  0  0  0  0  0  0  0
   -1.1346    2.5262    2.4539 O   0  5  0  0  0  0  0  0  0  0  0
    1.1541   -0.2280   -0.2200 H   0  0  0  0  0  0  0  0  0  0  0
    0.2150   -0.8207   -1.5927 H   0  0  0  0  0  0  0  0  0  0  0
   -0.4614    1.3951   -0.5731 H   0  0  0  0  0  0  0  0  0  0  0
   -1.7512    0.2415   -0.8996 H   0  0  0  0  0  0  0  0  0  0  0
   -3.3074   -0.2639    0.6855 H   0  0  0  0  0  0  0  0  0  0  0
   -3.0167   -0.1624    2.4249 H   0  0  0  0  0  0  0  0  0  0  0
   -1.5626   -2.0850    2.3962 H   0  0  0  0  0  0  0  0  0  0  0
   -3.1174   -2.4708    1.6525 H   0  0  0  0  0  0  0  0  0  0  0
    0.3744   -1.8847    1.2252 H   0  0  0  0  0  0  0  0  0  0  0
    0.5626   -2.7246   -0.3144 H   0  0  0  0  0  0  0  0  0  0  0
   -1.4940   -3.5169    0.3063 H   0  0  0  0  0  0  0  0  0  0  0
   -2.0202   -2.1112   -0.6324 H   0  0  0  0  0  0  0  0  0  0  0
   -0.5320    0.2323    1.8699 H   0  0  0  0  0  0  0  0  0  0  0
  1  2  1  0  0  0  0
  1  5  1  0  0  0  0
  1 11  1  0  0  0  0
  1 12  1  0  0  0  0
  2  7  1  0  0  0  0
  2 13  1  0  0  0  0
  2 14  1  0  0  0  0
  3  4  1  0  0  0  0
  3  7  1  0  0  0  0
  3 15  1  0  0  0  0
  3 16  1  0  0  0  0
  4  6  1  0  0  0  0
  4 17  1  0  0  0  0
  4 18  1  0  0  0  0
  5  6  1  0  0  0  0
  5 19  1  0  0  0  0
  5 20  1  0  0  0  0
  6 21  1  0  0  0  0
  6 22  1  0  0  0  0
  7  8  1  0  0  0  0
  7 23  1  0  0  0  0
  8  9  2  0  0  0  0
  8 10  1  0  0  0  0
M  END
> <Energy>
8.6949

> <Ring Energy>
None

$$$$
o9_mol_1

Vconf v2.1
 23 23  0  0  0  0  0  0  0  0999 V2000
    0.0721   -0.6854   -0.5930 C   0  0  0  0  0  0  0  0  0  0  0
   -0.2682    0.5305    0.2840 C   0  0  0  0  0  0  0  0  0  0  0
   -1.9435   -0.4840    1.9149 C   0  0  0  0  0  0  0  0  0  0  0
   -2.3837   -1.8715    1.4152 C   0  0  0  0  0  0  0  0  0  0  0
   -0.1810   -2.0397    0.0893 C   0  0  0  0  0  0  0  0  0  0  0
   -1.6804   -2.3722    0.1422 C   0  0  0  0  0  0  0  0  0  0  0
   -1.7319    0.5543    0.7862 C   0  0  0  0  0  0  0  0  0  0  0
   -2.0550    1.9075    1.2748 C   0  0  0  0  0  0  0  0  0  0  0
   -1.4231    2.4070    2.2316 O   0  0  0  0  0  0  0  0  0  0  0
   -2.9689    2.5708    0.7346 O   0  5  0  0  0  0  0  0  0  0  0
   -0.5025   -0.6314   -1.5186 H   0  0  0  0  0  0  0  0  0  0  0
    1.1314   -0.6258   -0.8474 H   0  0  0  0  0  0  0  0  0  0  0
   -0.0799    1.4192   -0.3202 H   0  0  0  0  0  0  0  0  0  0  0
    0.4107    0.5515    1.1383 H   0  0  0  0  0  0  0  0  0  0  0
   -1.0201   -0.5895    2.4859 H   0  0  0  0  0  0  0  0  0  0  0
   -2.7193   -0.1405    2.6023 H   0  0  0  0  0  0  0  0  0  0  0
   -3.4555   -1.8459    1.2182 H   0  0  0  0  0  0  0  0  0  0  0
   -2.2029   -2.5887    2.2157 H   0  0  0  0  0  0  0  0  0  0  0
    0.3134   -2.8076   -0.5067 H   0  0  0  0  0  0  0  0  0  0  0
    0.2516   -2.0488    1.0907 H   0  0  0  0  0  0  0  0  0  0  0
   -1.7964   -3.4559    0.1039 H   0  0  0  0  0  0  0  0  0  0  0
   -2.1786   -1.9507   -0.7315 H   0  0  0  0  0  0  0  0  0  0  0
   -2.4004    0.3279   -0.0457 H   0  0  0  0  0  0  0  0  0  0  0
  1  2  1  0  0  0  0
  1  5  1  0  0  0  0
  1 11  1  0  0  0  0
  1 12  1  0  0  0  0
  2  7  1  0  0  0  0
  2 13  1  0  0  0  0
  2 14  1  0  0  0  0
  3  4  1  0  0  0  0
  3  7  1  0  0  0  0
  3 15  1  0  0  0  0
  3 16  1  0  0  0  0
  4  6  1  0  0  0  0
  4 17  1  0  0  0  0
  4 18  1  0  0  0  0
  5  6  1  0  0  0  0
  5 19  1  0  0  0  0
  5 20  1  0  0  0  0
  6 21  1  0  0  0  0
  6 22  1  0  0  0  0
  7  8  1  0  0  0  0
  7 23  1  0  0  0  0
  8  9  2  0  0  0  0
  8 10  1  0  0  0  0
M  END
> <Energy>
8.6951

> <Ring Energy>
None

$$$$
o9_mol_1

Vconf v2.1
 23 23  0  0  0  0  0  0  0  0999 V2000
    0.2852   -0.7258   -0.3153 C   0  0  0  0  0  0  0  0  0  0  0
   -0.4737    0.5694    0.0162 C   0  0  0  0  0  0  0  0  0  0  0
   -2.6185   -0.3562    1.0354 C   0  0  0  0  0  0  0  0  0  0  0
   -2.4524   -1.8585    1.3256 C   0  0  0  0  0  0  0  0  0  0  0
   -0.6207   -1.9564   -0.4836 C   0  0  0  0  0  0  0  0  0  0  0
   -1.1195   -2.4783    0.8730 C   0  0  0  0  0  0  0  0  0  0  0
   -1.3419    0.4805    1.2943 C   0  0  0  0  0  0  0  0  0  0  0
   -1.7070    1.8416    1.7282 C   0  0  0  0  0  0  0  0  0  0  0
   -2.3804    2.5882    0.9844 O   0  0  0  0  0  0  0  0  0  0  0
   -1.3453    2.2635    2.8500 O   0  5  0  0  0  0  0  0  0  0  0
    1.0209   -0.9198    0.4663 H   0  0  0  0  0  0  0  0  0  0  0
    0.8202   -0.5669   -1.2529 H   0  0  0  0  0  0  0  0  0  0  0
    0.2759    1.3518    0.1433 H   0  0  0  0  0  0  0  0  0  0  0
   -1.1031    0.8381   -0.8340 H   0  0  0  0  0  0  0  0  0  0  0
   -2.9297   -0.2281   -0.0021 H   0  0  0  0  0  0  0  0  0  0  0
   -3.4344   -0.0051    1.6707 H   0  0  0  0  0  0  0  0  0  0  0
   -2.5487   -2.0176    2.3998 H   0  0  0  0  0  0  0  0  0  0  0
   -3.2664   -2.3873    0.8301 H   0  0  0  0  0  0  0  0  0  0  0
   -0.0263   -2.7433   -0.9492 H   0  0  0  0  0  0  0  0  0  0  0
   -1.4606   -1.7247   -1.1401 H   0  0  0  0  0  0  0  0  0  0  0
   -1.2642   -3.5566    0.7973 H   0  0  0  0  0  0  0  0  0  0  0
   -0.3618   -2.2946    1.6355 H   0  0  0  0  0  0  0  0  0  0  0
   -0.7596    0.0173    2.0921 H   0  0  0  0  0  0  0  0  0  0  0
  1  2  1  0  0  0  0
  1  5  1  0  0  0  0
  1 11  1  0  0  0  0
  1 12  1  0  0  0  0
  2  7  1  0  0  0  0
  2 13  1  0  0  0  0
  2 14  1  0  0  0  0
  3  4  1  0  0  0  0
  3  7  1  0  0  0  0
  3 15  1  0  0  0  0
  3 16  1  0  0  0  0
  4  6  1  0  0  0  0
  4 17  1  0  0  0  0
  4 18  1  0  0  0  0
  5  6  1  0  0  0  0
  5 19  1  0  0  0  0
  5 20  1  0  0  0  0
  6 21  1  0  0  0  0
  6 22  1  0  0  0  0
  7  8  1  0  0  0  0
  7 23  1  0  0  0  0
  8  9  2  0  0  0  0
  8 10  1  0  0  0  0
M  END
> <Energy>
8.6951

> <Ring Energy>
None

$$$$
o9_mol_1

Vconf v2.1
 23 23  0  0  0  0  0  0  0  0999 V2000
   -0.0166   -0.5884   -0.6564 C   0  0  0  0  0  0  0  0  0  0  0
   -0.2400    0.3556    0.5397 C   0  0  0  0  0  0  0  0  0  0  0
   -2.3237   -0.4411    1.8328 C   0  0  0  0  0  0  0  0  0  0  0
   -1.8483   -1.8939    1.6549 C   0  0  0  0  0  0  0  0  0  0  0
   -0.2915   -2.0679   -0.3477 C   0  0  0  0  0  0  0  0  0  0  0
   -1.7077   -2.3368    0.1894 C   0  0  0  0  0  0  0  0  0  0  0
   -1.7459    0.5742    0.8196 C   0  0  0  0  0  0  0  0  0  0  0
   -2.0020    1.9459    1.2969 C   0  0  0  0  0  0  0  0  0  0  0
   -1.4784    2.3598    2.3543 O   0  0  0  0  0  0  0  0  0  0  0
   -2.7378    2.7154    0.6386 O   0  5  0  0  0  0  0  0  0  0  0
   -0.6468   -0.2720   -1.4885 H   0  0  0  0  0  0  0  0  0  0  0
    1.0246   -0.5010   -0.9687 H   0  0  0  0  0  0  0  0  0  0  0
    0.2286    1.3072    0.2782 H   0  0  0  0  0  0  0  0  0  0  0
    0.2589   -0.0366    1.4273 H   0  0  0  0  0  0  0  0  0  0  0
   -2.0622   -0.1393    2.8492 H   0  0  0  0  0  0  0  0  0  0  0
   -3.4110   -0.4247    1.7441 H   0  0  0  0  0  0  0  0  0  0  0
   -2.5775   -2.5428    2.1429 H   0  0  0  0  0  0  0  0  0  0  0
   -0.8940   -2.0214    2.1656 H   0  0  0  0  0  0  0  0  0  0  0
   -0.1640   -2.6311   -1.2721 H   0  0  0  0  0  0  0  0  0  0  0
    0.4446   -2.4267    0.3737 H   0  0  0  0  0  0  0  0  0  0  0
   -2.4531   -1.8442   -0.4355 H   0  0  0  0  0  0  0  0  0  0  0
   -1.8786   -3.4133    0.1451 H   0  0  0  0  0  0  0  0  0  0  0
   -2.2898    0.4542   -0.1183 H   0  0  0  0  0  0  0  0  0  0  0
  1  2  1  0  0  0  0
  1  5  1  0  0  0  0
  1 11  1  0  0  0  0
  1 12  1  0  0  0  0
  2  7  1  0  0  0  0
  2 13  1  0  0  0  0
  2 14  1  0  0  0  0
  3  4  1  0  0  0  0
  3  7  1  0  0  0  0
  3 15  1  0  0  0  0
  3 16  1  0  0  0  0
  4  6  1  0  0  0  0
  4 17  1  0  0  0  0
  4 18  1  0  0  0  0
  5  6  1  0  0  0  0
  5 19  1  0  0  0  0
  5 20  1  0  0  0  0
  6 21  1  0  0  0  0
  6 22  1  0  0  0  0
  7  8  1  0  0  0  0
  7 23  1  0  0  0  0
  8  9  2  0  0  0  0
  8 10  1  0  0  0  0
M  END
> <Energy>
8.7429

> <Ring Energy>
None

$$$$
o9_mol_1

Vconf v2.1
 23 23  0  0  0  0  0  0  0  0999 V2000
    0.2541   -0.6430   -0.3343 C   0  0  0  0  0  0  0  0  0  0  0
   -0.7912    0.4667   -0.1163 C   0  0  0  0  0  0  0  0  0  0  0
   -2.5619   -0.3930    1.5493 C   0  0  0  0  0  0  0  0  0  0  0
   -2.5398   -1.7545    0.8321 C   0  0  0  0  0  0  0  0  0  0  0
   -0.3389   -2.0584   -0.4041 C   0  0  0  0  0  0  0  0  0  0  0
   -1.1666   -2.4459    0.8332 C   0  0  0  0  0  0  0  0  0  0  0
   -1.3064    0.4856    1.3426 C   0  0  0  0  0  0  0  0  0  0  0
   -1.5912    1.8631    1.7857 C   0  0  0  0  0  0  0  0  0  0  0
   -2.4503    2.5558    1.1978 O   0  0  0  0  0  0  0  0  0  0  0
   -0.9639    2.3577    2.7494 O   0  5  0  0  0  0  0  0  0  0  0
    0.9951   -0.6030    0.4652 H   0  0  0  0  0  0  0  0  0  0  0
    0.7645   -0.4486   -1.2783 H   0  0  0  0  0  0  0  0  0  0  0
   -0.2946    1.4126   -0.3444 H   0  0  0  0  0  0  0  0  0  0  0
   -1.6228    0.3428   -0.8117 H   0  0  0  0  0  0  0  0  0  0  0
   -3.4485    0.1402    1.1996 H   0  0  0  0  0  0  0  0  0  0  0
   -2.6754   -0.5730    2.6193 H   0  0  0  0  0  0  0  0  0  0  0
   -3.2545   -2.4063    1.3372 H   0  0  0  0  0  0  0  0  0  0  0
   -2.8781   -1.6213   -0.1953 H   0  0  0  0  0  0  0  0  0  0  0
    0.4878   -2.7626   -0.4965 H   0  0  0  0  0  0  0  0  0  0  0
   -0.9598   -2.1435   -1.2975 H   0  0  0  0  0  0  0  0  0  0  0
   -0.6189   -2.2140    1.7471 H   0  0  0  0  0  0  0  0  0  0  0
   -1.3321   -3.5235    0.7953 H   0  0  0  0  0  0  0  0  0  0  0
   -0.5186    0.0971    1.9893 H   0  0  0  0  0  0  0  0  0  0  0
  1  2  1  0  0  0  0
  1  5  1  0  0  0  0
  1 11  1  0  0  0  0
  1 12  1  0  0  0  0
  2  7  1  0  0  0  0
  2 13  1  0  0  0  0
  2 14  1  0  0  0  0
  3  4  1  0  0  0  0
  3  7  1  0  0  0  0
  3 15  1  0  0  0  0
  3 16  1  0  0  0  0
  4  6  1  0  0  0  0
  4 17  1  0  0  0  0
  4 18  1  0  0  0  0
  5  6  1  0  0  0  0
  5 19  1  0  0  0  0
  5 20  1  0  0  0  0
  6 21  1  0  0  0  0
  6 22  1  0  0  0  0
  7  8  1  0  0  0  0
  7 23  1  0  0  0  0
  8  9  2  0  0  0  0
  8 10  1  0  0  0  0
M  END
> <Energy>
8.7429

> <Ring Energy>
None

$$$$
o9_mol_1

Vconf v2.1
 23 23  0  0  0  0  0  0  0  0999 V2000
    0.3150   -0.8087   -0.0569 C   0  0  0  0  0  0  0  0  0  0  0
   -0.2654    0.5834    0.2500 C   0  0  0  0  0  0  0  0  0  0  0
   -1.9359   -0.5140    1.8784 C   0  0  0  0  0  0  0  0  0  0  0
   -2.4644   -1.8107    1.2390 C   0  0  0  0  0  0  0  0  0  0  0
   -0.7015   -1.8041   -0.6396 C   0  0  0  0  0  0  0  0  0  0  0
   -1.4004   -2.6097    0.4703 C   0  0  0  0  0  0  0  0  0  0  0
   -1.7031    0.5906    0.8187 C   0  0  0  0  0  0  0  0  0  0  0
   -2.0081    1.9254    1.3682 C   0  0  0  0  0  0  0  0  0  0  0
   -1.3730    2.3699    2.3500 O   0  0  0  0  0  0  0  0  0  0  0
   -2.9120    2.6253    0.8596 O   0  5  0  0  0  0  0  0  0  0  0
    1.1222   -0.6777   -0.7779 H   0  0  0  0  0  0  0  0  0  0  0
    0.7470   -1.2231    0.8552 H   0  0  0  0  0  0  0  0  0  0  0
   -0.2663    1.1635   -0.6744 H   0  0  0  0  0  0  0  0  0  0  0
    0.4142    1.0673    0.9546 H   0  0  0  0  0  0  0  0  0  0  0
   -1.0149   -0.7133    2.4276 H   0  0  0  0  0  0  0  0  0  0  0
   -2.6940   -0.1852    2.5925 H   0  0  0  0  0  0  0  0  0  0  0
   -3.2888   -1.5719    0.5663 H   0  0  0  0  0  0  0  0  0  0  0
   -2.8497   -2.4489    2.0344 H   0  0  0  0  0  0  0  0  0  0  0
   -1.4368   -1.2881   -1.2577 H   0  0  0  0  0  0  0  0  0  0  0
   -0.1583   -2.5101   -1.2674 H   0  0  0  0  0  0  0  0  0  0  0
   -1.8925   -3.4676    0.0115 H   0  0  0  0  0  0  0  0  0  0  0
   -0.6541   -2.9812    1.1727 H   0  0  0  0  0  0  0  0  0  0  0
   -2.3911    0.4200   -0.0099 H   0  0  0  0  0  0  0  0  0  0  0
  1  2  1  0  0  0  0
  1  5  1  0  0  0  0
  1 11  1  0  0  0  0
  1 12  1  0  0  0  0
  2  7  1  0  0  0  0
  2 13  1  0  0  0  0
  2 14  1  0  0  0  0
  3  4  1  0  0  0  0
  3  7  1  0  0  0  0
  3 15  1  0  0  0  0
  3 16  1  0  0  0  0
  4  6  1  0  0  0  0
  4 17  1  0  0  0  0
  4 18  1  0  0  0  0
  5  6  1  0  0  0  0
  5 19  1  0  0  0  0
  5 20  1  0  0  0  0
  6 21  1  0  0  0  0
  6 22  1  0  0  0  0
  7  8  1  0  0  0  0
  7 23  1  0  0  0  0
  8  9  2  0  0  0  0
  8 10  1  0  0  0  0
M  END
> <Energy>
8.7437

> <Ring Energy>
None

$$$$
o9_mol_1

Vconf v2.1
 23 23  0  0  0  0  0  0  0  0999 V2000
   -0.1719   -0.7154   -0.6942 C   0  0  0  0  0  0  0  0  0  0  0
   -0.4283    0.6146    0.0367 C   0  0  0  0  0  0  0  0  0  0  0
   -2.5871   -0.3891    1.0260 C   0  0  0  0  0  0  0  0  0  0  0
   -2.3034   -1.8416    1.4498 C   0  0  0  0  0  0  0  0  0  0  0
   -0.0333   -1.9322    0.2352 C   0  0  0  0  0  0  0  0  0  0  0
   -1.3928   -2.6112    0.4803 C   0  0  0  0  0  0  0  0  0  0  0
   -1.3609    0.5250    1.2667 C   0  0  0  0  0  0  0  0  0  0  0
   -1.7811    1.8818    1.6654 C   0  0  0  0  0  0  0  0  0  0  0
   -2.4804    2.5822    0.9003 O   0  0  0  0  0  0  0  0  0  0  0
   -1.4459    2.3443    2.7787 O   0  5  0  0  0  0  0  0  0  0  0
    0.7530   -0.6069   -1.2613 H   0  0  0  0  0  0  0  0  0  0  0
   -0.9800   -0.8920   -1.4055 H   0  0  0  0  0  0  0  0  0  0  0
    0.5323    1.0105    0.3710 H   0  0  0  0  0  0  0  0  0  0  0
   -0.8462    1.3089   -0.6953 H   0  0  0  0  0  0  0  0  0  0  0
   -2.8864   -0.3546   -0.0223 H   0  0  0  0  0  0  0  0  0  0  0
   -3.4278   -0.0446    1.6319 H   0  0  0  0  0  0  0  0  0  0  0
   -1.8547   -1.8468    2.4437 H   0  0  0  0  0  0  0  0  0  0  0
   -3.2546   -2.3713    1.5043 H   0  0  0  0  0  0  0  0  0  0  0
    0.4264   -1.6453    1.1813 H   0  0  0  0  0  0  0  0  0  0  0
    0.6141   -2.6582   -0.2563 H   0  0  0  0  0  0  0  0  0  0  0
   -1.2098   -3.5984    0.9051 H   0  0  0  0  0  0  0  0  0  0  0
   -1.9096   -2.7405   -0.4708 H   0  0  0  0  0  0  0  0  0  0  0
   -0.7836    0.1118    2.0944 H   0  0  0  0  0  0  0  0  0  0  0
  1  2  1  0  0  0  0
  1  5  1  0  0  0  0
  1 11  1  0  0  0  0
  1 12  1  0  0  0  0
  2  7  1  0  0  0  0
  2 13  1  0  0  0  0
  2 14  1  0  0  0  0
  3  4  1  0  0  0  0
  3  7  1  0  0  0  0
  3 15  1  0  0  0  0
  3 16  1  0  0  0  0
  4  6  1  0  0  0  0
  4 17  1  0  0  0  0
  4 18  1  0  0  0  0
  5  6  1  0  0  0  0
  5 19  1  0  0  0  0
  5 20  1  0  0  0  0
  6 21  1  0  0  0  0
  6 22  1  0  0  0  0
  7  8  1  0  0  0  0
  7 23  1  0  0  0  0
  8  9  2  0  0  0  0
  8 10  1  0  0  0  0
M  END
> <Energy>
8.7437

> <Ring Energy>
None

$$$$
o9_mol_1

Vconf v2.1
 23 23  0  0  0  0  0  0  0  0999 V2000
   -0.2224   -0.7204   -0.6727 C   0  0  0  0  0  0  0  0  0  0  0
   -0.3656    0.5447    0.1915 C   0  0  0  0  0  0  0  0  0  0  0
   -2.1393   -0.5203    1.7250 C   0  0  0  0  0  0  0  0  0  0  0
   -2.5345   -1.7327    0.8635 C   0  0  0  0  0  0  0  0  0  0  0
   -0.0425   -1.9813    0.1894 C   0  0  0  0  0  0  0  0  0  0  0
   -1.3648   -2.6797    0.5471 C   0  0  0  0  0  0  0  0  0  0  0
   -1.7502    0.7042    0.8596 C   0  0  0  0  0  0  0  0  0  0  0
   -1.7640    1.9568    1.6422 C   0  0  0  0  0  0  0  0  0  0  0
   -1.5972    3.0520    1.0613 O   0  0  0  0  0  0  0  0  0  0  0
   -1.9431    1.9607    2.8830 O   0  5  0  0  0  0  0  0  0  0  0
   -1.0807   -0.8268   -1.3382 H   0  0  0  0  0  0  0  0  0  0  0
    0.6730   -0.6025   -1.2843 H   0  0  0  0  0  0  0  0  0  0  0
   -0.1979    1.4046   -0.4603 H   0  0  0  0  0  0  0  0  0  0  0
    0.4135    0.5419    0.9563 H   0  0  0  0  0  0  0  0  0  0  0
   -1.3234   -0.7819    2.4015 H   0  0  0  0  0  0  0  0  0  0  0
   -3.0121   -0.2590    2.3253 H   0  0  0  0  0  0  0  0  0  0  0
   -2.9807   -1.3869   -0.0702 H   0  0  0  0  0  0  0  0  0  0  0
   -3.2891   -2.3076    1.4017 H   0  0  0  0  0  0  0  0  0  0  0
    0.5714   -2.6941   -0.3620 H   0  0  0  0  0  0  0  0  0  0  0
    0.4854   -1.7221    1.1073 H   0  0  0  0  0  0  0  0  0  0  0
   -1.1873   -3.3181    1.4136 H   0  0  0  0  0  0  0  0  0  0  0
   -1.6626   -3.3141   -0.2893 H   0  0  0  0  0  0  0  0  0  0  0
   -2.4978    0.8139    0.0738 H   0  0  0  0  0  0  0  0  0  0  0
  1  2  1  0  0  0  0
  1  5  1  0  0  0  0
  1 11  1  0  0  0  0
  1 12  1  0  0  0  0
  2  7  1  0  0  0  0
  2 13  1  0  0  0  0
  2 14  1  0  0  0  0
  3  4  1  0  0  0  0
  3  7  1  0  0  0  0
  3 15  1  0  0  0  0
  3 16  1  0  0  0  0
  4  6  1  0  0  0  0
  4 17  1  0  0  0  0
  4 18  1  0  0  0  0
  5  6  1  0  0  0  0
  5 19  1  0  0  0  0
  5 20  1  0  0  0  0
  6 21  1  0  0  0  0
  6 22  1  0  0  0  0
  7  8  1  0  0  0  0
  7 23  1  0  0  0  0
  8  9  2  0  0  0  0
  8 10  1  0  0  0  0
M  END
> <Energy>
9.0697

> <Ring Energy>
None

$$$$
o9_mol_1

Vconf v2.1
 23 23  0  0  0  0  0  0  0  0999 V2000
    0.2962   -0.8465    0.0337 C   0  0  0  0  0  0  0  0  0  0  0
   -0.3455    0.5398    0.2189 C   0  0  0  0  0  0  0  0  0  0  0
   -2.5132   -0.4293    1.2156 C   0  0  0  0  0  0  0  0  0  0  0
   -2.0343   -1.8544    1.5448 C   0  0  0  0  0  0  0  0  0  0  0
   -0.6635   -1.8303   -0.6567 C   0  0  0  0  0  0  0  0  0  0  0
   -1.5294   -2.6397    0.3228 C   0  0  0  0  0  0  0  0  0  0  0
   -1.3779    0.6137    1.3668 C   0  0  0  0  0  0  0  0  0  0  0
   -1.9048    1.9910    1.4505 C   0  0  0  0  0  0  0  0  0  0  0
   -1.1267    2.9376    1.7023 O   0  0  0  0  0  0  0  0  0  0  0
   -3.1201    2.2468    1.2797 O   0  5  0  0  0  0  0  0  0  0  0
    0.6311   -1.2431    0.9936 H   0  0  0  0  0  0  0  0  0  0  0
    1.1685   -0.7230   -0.6093 H   0  0  0  0  0  0  0  0  0  0  0
    0.4598    1.2447    0.4358 H   0  0  0  0  0  0  0  0  0  0  0
   -0.8162    0.8410   -0.7189 H   0  0  0  0  0  0  0  0  0  0  0
   -2.9331   -0.3904    0.2086 H   0  0  0  0  0  0  0  0  0  0  0
   -3.3047   -0.1879    1.9267 H   0  0  0  0  0  0  0  0  0  0  0
   -1.2440   -1.8092    2.2957 H   0  0  0  0  0  0  0  0  0  0  0
   -2.8702   -2.4095    1.9724 H   0  0  0  0  0  0  0  0  0  0  0
   -0.0744   -2.5371   -1.2417 H   0  0  0  0  0  0  0  0  0  0  0
   -1.3125   -1.2849   -1.3420 H   0  0  0  0  0  0  0  0  0  0  0
   -2.3902   -3.0256   -0.2251 H   0  0  0  0  0  0  0  0  0  0  0
   -0.9470   -3.4881    0.6856 H   0  0  0  0  0  0  0  0  0  0  0
   -0.8598    0.4155    2.3052 H   0  0  0  0  0  0  0  0  0  0  0
  1  2  1  0  0  0  0
  1  5  1  0  0  0  0
  1 11  1  0  0  0  0
  1 12  1  0  0  0  0
  2  7  1  0  0  0  0
  2 13  1  0  0  0  0
  2 14  1  0  0  0  0
  3  4  1  0  0  0  0
  3  7  1  0  0  0  0
  3 15  1  0  0  0  0
  3 16  1  0  0  0  0
  4  6  1  0  0  0  0
  4 17  1  0  0  0  0
  4 18  1  0  0  0  0
  5  6  1  0  0  0  0
  5 19  1  0  0  0  0
  5 20  1  0  0  0  0
  6 21  1  0  0  0  0
  6 22  1  0  0  0  0
  7  8  1  0  0  0  0
  7 23  1  0  0  0  0
  8  9  2  0  0  0  0
  8 10  1  0  0  0  0
M  END
> <Energy>
9.0697

> <Ring Energy>
None

$$$$
o9_mol_1

Vconf v2.1
 23 23  0  0  0  0  0  0  0  0999 V2000
   -0.2952   -0.7067   -0.7392 C   0  0  0  0  0  0  0  0  0  0  0
   -0.4119    0.5602    0.1263 C   0  0  0  0  0  0  0  0  0  0  0
   -2.0609   -0.5221    1.7756 C   0  0  0  0  0  0  0  0  0  0  0
   -2.4830   -1.7544    0.9552 C   0  0  0  0  0  0  0  0  0  0  0
   -0.0348   -1.9576    0.1164 C   0  0  0  0  0  0  0  0  0  0  0
   -1.3167   -2.6785    0.5672 C   0  0  0  0  0  0  0  0  0  0  0
   -1.7596    0.6975    0.8712 C   0  0  0  0  0  0  0  0  0  0  0
   -1.8053    1.9413    1.6671 C   0  0  0  0  0  0  0  0  0  0  0
   -2.8710    2.2809    2.2271 O   0  0  0  0  0  0  0  0  0  0  0
   -0.8076    2.6917    1.7820 O   0  5  0  0  0  0  0  0  0  0  0
   -1.1899   -0.8353   -1.3494 H   0  0  0  0  0  0  0  0  0  0  0
    0.5589   -0.5734   -1.4052 H   0  0  0  0  0  0  0  0  0  0  0
   -0.2979    1.4215   -0.5343 H   0  0  0  0  0  0  0  0  0  0  0
    0.4089    0.5749    0.8461 H   0  0  0  0  0  0  0  0  0  0  0
   -1.1961   -0.7571    2.3967 H   0  0  0  0  0  0  0  0  0  0  0
   -2.8981   -0.2781    2.4324 H   0  0  0  0  0  0  0  0  0  0  0
   -3.0000   -1.4314    0.0512 H   0  0  0  0  0  0  0  0  0  0  0
   -3.1845   -2.3404    1.5495 H   0  0  0  0  0  0  0  0  0  0  0
    0.5545   -2.6628   -0.4695 H   0  0  0  0  0  0  0  0  0  0  0
    0.5483   -1.6814    0.9957 H   0  0  0  0  0  0  0  0  0  0  0
   -1.0671   -3.3055    1.4241 H   0  0  0  0  0  0  0  0  0  0  0
   -1.6551   -3.3272   -0.2419 H   0  0  0  0  0  0  0  0  0  0  0
   -2.5479    0.7752    0.1207 H   0  0  0  0  0  0  0  0  0  0  0
  1  2  1  0  0  0  0
  1  5  1  0  0  0  0
  1 11  1  0  0  0  0
  1 12  1  0  0  0  0
  2  7  1  0  0  0  0
  2 13  1  0  0  0  0
  2 14  1  0  0  0  0
  3  4  1  0  0  0  0
  3  7  1  0  0  0  0
  3 15  1  0  0  0  0
  3 16  1  0  0  0  0
  4  6  1  0  0  0  0
  4 17  1  0  0  0  0
  4 18  1  0  0  0  0
  5  6  1  0  0  0  0
  5 19  1  0  0  0  0
  5 20  1  0  0  0  0
  6 21  1  0  0  0  0
  6 22  1  0  0  0  0
  7  8  1  0  0  0  0
  7 23  1  0  0  0  0
  8  9  2  0  0  0  0
  8 10  1  0  0  0  0
M  END
> <Energy>
9.1269

> <Ring Energy>
None

$$$$
o9_mol_1

Vconf v2.1
 23 23  0  0  0  0  0  0  0  0999 V2000
    0.2275   -0.7900   -0.1517 C   0  0  0  0  0  0  0  0  0  0  0
   -0.4611    0.5680    0.0710 C   0  0  0  0  0  0  0  0  0  0  0
   -2.4399   -0.4618    1.3495 C   0  0  0  0  0  0  0  0  0  0  0
   -1.8589   -1.8538    1.6568 C   0  0  0  0  0  0  0  0  0  0  0
   -0.7541   -1.8430   -0.6922 C   0  0  0  0  0  0  0  0  0  0  0
   -1.4590   -2.6559    0.4071 C   0  0  0  0  0  0  0  0  0  0  0
   -1.3439    0.6313    1.3386 C   0  0  0  0  0  0  0  0  0  0  0
   -1.9582    1.9657    1.4952 C   0  0  0  0  0  0  0  0  0  0  0
   -2.5956    2.2370    2.5367 O   0  0  0  0  0  0  0  0  0  0  0
   -1.8407    2.8562    0.6206 O   0  5  0  0  0  0  0  0  0  0  0
    0.6958   -1.1356    0.7706 H   0  0  0  0  0  0  0  0  0  0  0
    1.0080   -0.6450   -0.9003 H   0  0  0  0  0  0  0  0  0  0  0
    0.3220    1.3227    0.1626 H   0  0  0  0  0  0  0  0  0  0  0
   -1.0623    0.8092   -0.8078 H   0  0  0  0  0  0  0  0  0  0  0
   -2.9734   -0.4741    0.3987 H   0  0  0  0  0  0  0  0  0  0  0
   -3.1567   -0.2369    2.1415 H   0  0  0  0  0  0  0  0  0  0  0
   -0.9914   -1.7514    2.3093 H   0  0  0  0  0  0  0  0  0  0  0
   -2.6128   -2.4314    2.1923 H   0  0  0  0  0  0  0  0  0  0  0
   -0.2023   -2.5423   -1.3203 H   0  0  0  0  0  0  0  0  0  0  0
   -1.5056   -1.3543   -1.3133 H   0  0  0  0  0  0  0  0  0  0  0
   -2.3565   -3.1001   -0.0254 H   0  0  0  0  0  0  0  0  0  0  0
   -0.7974   -3.4638    0.7223 H   0  0  0  0  0  0  0  0  0  0  0
   -0.6955    0.4802    2.2032 H   0  0  0  0  0  0  0  0  0  0  0
  1  2  1  0  0  0  0
  1  5  1  0  0  0  0
  1 11  1  0  0  0  0
  1 12  1  0  0  0  0
  2  7  1  0  0  0  0
  2 13  1  0  0  0  0
  2 14  1  0  0  0  0
  3  4  1  0  0  0  0
  3  7  1  0  0  0  0
  3 15  1  0  0  0  0
  3 16  1  0  0  0  0
  4  6  1  0  0  0  0
  4 17  1  0  0  0  0
  4 18  1  0  0  0  0
  5  6  1  0  0  0  0
  5 19  1  0  0  0  0
  5 20  1  0  0  0  0
  6 21  1  0  0  0  0
  6 22  1  0  0  0  0
  7  8  1  0  0  0  0
  7 23  1  0  0  0  0
  8  9  2  0  0  0  0
  8 10  1  0  0  0  0
M  END
> <Energy>
9.1269

> <Ring Energy>
None

$$$$
o9_mol_1

Vconf v2.1
 23 23  0  0  0  0  0  0  0  0999 V2000
    0.2318   -0.5824    0.1231 C   0  0  0  0  0  0  0  0  0  0  0
   -0.8362    0.4578   -0.2618 C   0  0  0  0  0  0  0  0  0  0  0
   -2.3215   -0.4866    1.6397 C   0  0  0  0  0  0  0  0  0  0  0
   -2.5536   -1.7249    0.7544 C   0  0  0  0  0  0  0  0  0  0  0
   -0.2026   -2.0069   -0.2655 C   0  0  0  0  0  0  0  0  0  0  0
   -1.2882   -2.5946    0.6512 C   0  0  0  0  0  0  0  0  0  0  0
   -1.8548    0.7660    0.8619 C   0  0  0  0  0  0  0  0  0  0  0
   -1.3697    1.7828    1.8185 C   0  0  0  0  0  0  0  0  0  0  0
   -0.1935    2.2109    1.7880 O   0  0  0  0  0  0  0  0  0  0  0
   -2.1481    2.2346    2.6888 O   0  5  0  0  0  0  0  0  0  0  0
    1.1428   -0.3516   -0.4300 H   0  0  0  0  0  0  0  0  0  0  0
    0.4542   -0.5297    1.1898 H   0  0  0  0  0  0  0  0  0  0  0
   -1.3793    0.1004   -1.1363 H   0  0  0  0  0  0  0  0  0  0  0
   -0.3318    1.3811   -0.5537 H   0  0  0  0  0  0  0  0  0  0  0
   -1.5958   -0.7396    2.4156 H   0  0  0  0  0  0  0  0  0  0  0
   -3.2641   -0.2408    2.1313 H   0  0  0  0  0  0  0  0  0  0  0
   -2.8987   -1.4299   -0.2371 H   0  0  0  0  0  0  0  0  0  0  0
   -3.3315   -2.3297    1.2228 H   0  0  0  0  0  0  0  0  0  0  0
    0.6702   -2.6571   -0.2097 H   0  0  0  0  0  0  0  0  0  0  0
   -0.5638   -2.0074   -1.2943 H   0  0  0  0  0  0  0  0  0  0  0
   -0.8713   -2.7469    1.6475 H   0  0  0  0  0  0  0  0  0  0  0
   -1.5749   -3.5667    0.2485 H   0  0  0  0  0  0  0  0  0  0  0
   -2.7315    1.1923    0.3723 H   0  0  0  0  0  0  0  0  0  0  0
  1  2  1  0  0  0  0
  1  5  1  0  0  0  0
  1 11  1  0  0  0  0
  1 12  1  0  0  0  0
  2  7  1  0  0  0  0
  2 13  1  0  0  0  0
  2 14  1  0  0  0  0
  3  4  1  0  0  0  0
  3  7  1  0  0  0  0
  3 15  1  0  0  0  0
  3 16  1  0  0  0  0
  4  6  1  0  0  0  0
  4 17  1  0  0  0  0
  4 18  1  0  0  0  0
  5  6  1  0  0  0  0
  5 19  1  0  0  0  0
  5 20  1  0  0  0  0
  6 21  1  0  0  0  0
  6 22  1  0  0  0  0
  7  8  1  0  0  0  0
  7 23  1  0  0  0  0
  8  9  2  0  0  0  0
  8 10  1  0  0  0  0
M  END
> <Energy>
9.3373

> <Ring Energy>
None

$$$$
o9_mol_1

Vconf v2.1
 23 23  0  0  0  0  0  0  0  0999 V2000
   -0.1772   -0.4918   -0.4908 C   0  0  0  0  0  0  0  0  0  0  0
   -0.1086    0.2965    0.8301 C   0  0  0  0  0  0  0  0  0  0  0
   -2.5497   -0.4361    1.2973 C   0  0  0  0  0  0  0  0  0  0  0
   -2.0026   -1.8471    1.5813 C   0  0  0  0  0  0  0  0  0  0  0
   -0.1864   -2.0105   -0.2412 C   0  0  0  0  0  0  0  0  0  0  0
   -1.5267   -2.5418    0.2932 C   0  0  0  0  0  0  0  0  0  0  0
   -1.4904    0.6852    1.4088 C   0  0  0  0  0  0  0  0  0  0  0
   -2.0323    1.9297    0.8241 C   0  0  0  0  0  0  0  0  0  0  0
   -1.4835    2.4968   -0.1479 O   0  0  0  0  0  0  0  0  0  0  0
   -3.0697    2.4389    1.3057 O   0  5  0  0  0  0  0  0  0  0  0
    0.7157   -0.2570   -1.0709 H   0  0  0  0  0  0  0  0  0  0  0
   -1.0523   -0.1958   -1.0711 H   0  0  0  0  0  0  0  0  0  0  0
    0.4244   -0.2994    1.5706 H   0  0  0  0  0  0  0  0  0  0  0
    0.4796    1.2013    0.6640 H   0  0  0  0  0  0  0  0  0  0  0
   -3.0030   -0.4277    0.3037 H   0  0  0  0  0  0  0  0  0  0  0
   -3.3352   -0.2250    2.0247 H   0  0  0  0  0  0  0  0  0  0  0
   -1.1975   -1.8070    2.3159 H   0  0  0  0  0  0  0  0  0  0  0
   -2.8163   -2.4439    1.9960 H   0  0  0  0  0  0  0  0  0  0  0
    0.0196   -2.5129   -1.1861 H   0  0  0  0  0  0  0  0  0  0  0
    0.6065   -2.2667    0.4620 H   0  0  0  0  0  0  0  0  0  0  0
   -2.2886   -2.4328   -0.4795 H   0  0  0  0  0  0  0  0  0  0  0
   -1.4041   -3.6046    0.5048 H   0  0  0  0  0  0  0  0  0  0  0
   -1.3336    0.8825    2.4702 H   0  0  0  0  0  0  0  0  0  0  0
  1  2  1  0  0  0  0
  1  5  1  0  0  0  0
  1 11  1  0  0  0  0
  1 12  1  0  0  0  0
  2  7  1  0  0  0  0
  2 13  1  0  0  0  0
  2 14  1  0  0  0  0
  3  4  1  0  0  0  0
  3  7  1  0  0  0  0
  3 15  1  0  0  0  0
  3 16  1  0  0  0  0
  4  6  1  0  0  0  0
  4 17  1  0  0  0  0
  4 18  1  0  0  0  0
  5  6  1  0  0  0  0
  5 19  1  0  0  0  0
  5 20  1  0  0  0  0
  6 21  1  0  0  0  0
  6 22  1  0  0  0  0
  7  8  1  0  0  0  0
  7 23  1  0  0  0  0
  8  9  2  0  0  0  0
  8 10  1  0  0  0  0
M  END
> <Energy>
9.3373

> <Ring Energy>
None

$$$$
o9_mol_1

Vconf v2.1
 23 23  0  0  0  0  0  0  0  0999 V2000
   -0.0268   -0.6183   -0.6729 C   0  0  0  0  0  0  0  0  0  0  0
   -0.2630    0.3800    0.4761 C   0  0  0  0  0  0  0  0  0  0  0
   -2.3035   -0.4164    1.8332 C   0  0  0  0  0  0  0  0  0  0  0
   -1.7833   -1.8604    1.7220 C   0  0  0  0  0  0  0  0  0  0  0
   -0.2506   -2.0885   -0.2903 C   0  0  0  0  0  0  0  0  0  0  0
   -1.6512   -2.3708    0.2772 C   0  0  0  0  0  0  0  0  0  0  0
   -1.7734    0.5738    0.7688 C   0  0  0  0  0  0  0  0  0  0  0
   -2.1098    1.9499    1.1906 C   0  0  0  0  0  0  0  0  0  0  0
   -3.3096    2.2771    1.3262 O   0  0  0  0  0  0  0  0  0  0  0
   -1.2279    2.8049    1.4358 O   0  5  0  0  0  0  0  0  0  0  0
   -0.6765   -0.3634   -1.5109 H   0  0  0  0  0  0  0  0  0  0  0
    1.0072   -0.5149   -1.0029 H   0  0  0  0  0  0  0  0  0  0  0
    0.1746    1.3252    0.1530 H   0  0  0  0  0  0  0  0  0  0  0
    0.2601    0.0522    1.3751 H   0  0  0  0  0  0  0  0  0  0  0
   -2.0404   -0.0571    2.8299 H   0  0  0  0  0  0  0  0  0  0  0
   -3.3918   -0.4411    1.7577 H   0  0  0  0  0  0  0  0  0  0  0
   -2.4835   -2.5060    2.2540 H   0  0  0  0  0  0  0  0  0  0  0
   -0.8174   -1.9312    2.2230 H   0  0  0  0  0  0  0  0  0  0  0
   -0.1179   -2.6922   -1.1887 H   0  0  0  0  0  0  0  0  0  0  0
    0.5040   -2.3889    0.4371 H   0  0  0  0  0  0  0  0  0  0  0
   -1.7926   -3.4519    0.2883 H   0  0  0  0  0  0  0  0  0  0  0
   -2.4192   -1.9290   -0.3588 H   0  0  0  0  0  0  0  0  0  0  0
   -2.3194    0.3980   -0.1585 H   0  0  0  0  0  0  0  0  0  0  0
  1  2  1  0  0  0  0
  1  5  1  0  0  0  0
  1 11  1  0  0  0  0
  1 12  1  0  0  0  0
  2  7  1  0  0  0  0
  2 13  1  0  0  0  0
  2 14  1  0  0  0  0
  3  4  1  0  0  0  0
  3  7  1  0  0  0  0
  3 15  1  0  0  0  0
  3 16  1  0  0  0  0
  4  6  1  0  0  0  0
  4 17  1  0  0  0  0
  4 18  1  0  0  0  0
  5  6  1  0  0  0  0
  5 19  1  0  0  0  0
  5 20  1  0  0  0  0
  6 21  1  0  0  0  0
  6 22  1  0  0  0  0
  7  8  1  0  0  0  0
  7 23  1  0  0  0  0
  8  9  2  0  0  0  0
  8 10  1  0  0  0  0
M  END
> <Energy>
9.5729

> <Ring Energy>
None

$$$$
o9_mol_1

Vconf v2.1
 23 23  0  0  0  0  0  0  0  0999 V2000
    0.1666   -0.6398   -0.4641 C   0  0  0  0  0  0  0  0  0  0  0
   -0.8896    0.4498   -0.2003 C   0  0  0  0  0  0  0  0  0  0  0
   -2.4831   -0.3964    1.6392 C   0  0  0  0  0  0  0  0  0  0  0
   -2.4783   -1.7830    0.9717 C   0  0  0  0  0  0  0  0  0  0  0
   -0.3815   -2.0739   -0.4316 C   0  0  0  0  0  0  0  0  0  0  0
   -1.0874   -2.4336    0.8859 C   0  0  0  0  0  0  0  0  0  0  0
   -1.2833    0.5192    1.2980 C   0  0  0  0  0  0  0  0  0  0  0
   -1.5880    1.8917    1.7539 C   0  0  0  0  0  0  0  0  0  0  0
   -1.7869    2.1074    2.9700 O   0  0  0  0  0  0  0  0  0  0  0
   -1.6716    2.8544    0.9568 O   0  5  0  0  0  0  0  0  0  0  0
    0.9705   -0.5470    0.2671 H   0  0  0  0  0  0  0  0  0  0  0
    0.5888   -0.4683   -1.4545 H   0  0  0  0  0  0  0  0  0  0  0
   -0.4367    1.3933   -0.5070 H   0  0  0  0  0  0  0  0  0  0  0
   -1.7717    0.2787   -0.8183 H   0  0  0  0  0  0  0  0  0  0  0
   -3.4130    0.0959    1.3481 H   0  0  0  0  0  0  0  0  0  0  0
   -2.4997   -0.5405    2.7208 H   0  0  0  0  0  0  0  0  0  0  0
   -3.1289   -2.4341    1.5572 H   0  0  0  0  0  0  0  0  0  0  0
   -2.9033   -1.6986   -0.0289 H   0  0  0  0  0  0  0  0  0  0  0
    0.4582   -2.7564   -0.5667 H   0  0  0  0  0  0  0  0  0  0  0
   -1.0717   -2.2132   -1.2639 H   0  0  0  0  0  0  0  0  0  0  0
   -1.2206   -3.5157    0.9059 H   0  0  0  0  0  0  0  0  0  0  0
   -0.4743   -2.1458    1.7408 H   0  0  0  0  0  0  0  0  0  0  0
   -0.4265    0.1870    1.8849 H   0  0  0  0  0  0  0  0  0  0  0
  1  2  1  0  0  0  0
  1  5  1  0  0  0  0
  1 11  1  0  0  0  0
  1 12  1  0  0  0  0
  2  7  1  0  0  0  0
  2 13  1  0  0  0  0
  2 14  1  0  0  0  0
  3  4  1  0  0  0  0
  3  7  1  0  0  0  0
  3 15  1  0  0  0  0
  3 16  1  0  0  0  0
  4  6  1  0  0  0  0
  4 17  1  0  0  0  0
  4 18  1  0  0  0  0
  5  6  1  0  0  0  0
  5 19  1  0  0  0  0
  5 20  1  0  0  0  0
  6 21  1  0  0  0  0
  6 22  1  0  0  0  0
  7  8  1  0  0  0  0
  7 23  1  0  0  0  0
  8  9  2  0  0  0  0
  8 10  1  0  0  0  0
M  END
> <Energy>
9.5729

> <Ring Energy>
None

$$$$
o9_mol_1

Vconf v2.1
 23 23  0  0  0  0  0  0  0  0999 V2000
   -0.0105   -0.6586   -0.6832 C   0  0  0  0  0  0  0  0  0  0  0
   -0.3364    0.5605    0.1935 C   0  0  0  0  0  0  0  0  0  0  0
   -1.8380   -0.4877    1.9587 C   0  0  0  0  0  0  0  0  0  0  0
   -2.2689   -1.8951    1.5113 C   0  0  0  0  0  0  0  0  0  0  0
   -0.1613   -2.0092    0.0362 C   0  0  0  0  0  0  0  0  0  0  0
   -1.6406   -2.3957    0.2007 C   0  0  0  0  0  0  0  0  0  0  0
   -1.7601    0.5438    0.8049 C   0  0  0  0  0  0  0  0  0  0  0
   -2.1460    1.8835    1.2976 C   0  0  0  0  0  0  0  0  0  0  0
   -3.3122    2.0782    1.7083 O   0  0  0  0  0  0  0  0  0  0  0
   -1.3414    2.8434    1.3134 O   0  5  0  0  0  0  0  0  0  0  0
   -0.6504   -0.6453   -1.5668 H   0  0  0  0  0  0  0  0  0  0  0
    1.0241   -0.5648   -1.0130 H   0  0  0  0  0  0  0  0  0  0  0
   -0.2313    1.4401   -0.4442 H   0  0  0  0  0  0  0  0  0  0  0
    0.4031    0.6325    0.9927 H   0  0  0  0  0  0  0  0  0  0  0
   -0.8663   -0.5543    2.4512 H   0  0  0  0  0  0  0  0  0  0  0
   -2.5642   -0.1681    2.7095 H   0  0  0  0  0  0  0  0  0  0  0
   -2.0101   -2.5938    2.3084 H   0  0  0  0  0  0  0  0  0  0  0
   -3.3521   -1.9055    1.3912 H   0  0  0  0  0  0  0  0  0  0  0
    0.3172   -2.7696   -0.5821 H   0  0  0  0  0  0  0  0  0  0  0
    0.3401   -1.9848    1.0039 H   0  0  0  0  0  0  0  0  0  0  0
   -1.7180   -3.4831    0.1886 H   0  0  0  0  0  0  0  0  0  0  0
   -2.2146   -2.0085   -0.6422 H   0  0  0  0  0  0  0  0  0  0  0
   -2.4739    0.2732    0.0264 H   0  0  0  0  0  0  0  0  0  0  0
  1  2  1  0  0  0  0
  1  5  1  0  0  0  0
  1 11  1  0  0  0  0
  1 12  1  0  0  0  0
  2  7  1  0  0  0  0
  2 13  1  0  0  0  0
  2 14  1  0  0  0  0
  3  4  1  0  0  0  0
  3  7  1  0  0  0  0
  3 15  1  0  0  0  0
  3 16  1  0  0  0  0
  4  6  1  0  0  0  0
  4 17  1  0  0  0  0
  4 18  1  0  0  0  0
  5  6  1  0  0  0  0
  5 19  1  0  0  0  0
  5 20  1  0  0  0  0
  6 21  1  0  0  0  0
  6 22  1  0  0  0  0
  7  8  1  0  0  0  0
  7 23  1  0  0  0  0
  8  9  2  0  0  0  0
  8 10  1  0  0  0  0
M  END
> <Energy>
9.585

> <Ring Energy>
None

$$$$
o9_mol_1

Vconf v2.1
 23 23  0  0  0  0  0  0  0  0999 V2000
    0.2510   -0.7015   -0.3787 C   0  0  0  0  0  0  0  0  0  0  0
   -0.4902    0.5857    0.0145 C   0  0  0  0  0  0  0  0  0  0  0
   -2.6007   -0.3626    1.0709 C   0  0  0  0  0  0  0  0  0  0  0
   -2.4263   -1.8693    1.3281 C   0  0  0  0  0  0  0  0  0  0  0
   -0.6623   -1.9270   -0.5469 C   0  0  0  0  0  0  0  0  0  0  0
   -1.1135   -2.4822    0.8143 C   0  0  0  0  0  0  0  0  0  0  0
   -1.3184    0.4714    1.3190 C   0  0  0  0  0  0  0  0  0  0  0
   -1.6774    1.8066    1.8431 C   0  0  0  0  0  0  0  0  0  0  0
   -2.2390    1.9022    2.9576 O   0  0  0  0  0  0  0  0  0  0  0
   -1.4316    2.8582    1.2084 O   0  5  0  0  0  0  0  0  0  0  0
    1.0139   -0.9183    0.3706 H   0  0  0  0  0  0  0  0  0  0  0
    0.7522   -0.5202   -1.3295 H   0  0  0  0  0  0  0  0  0  0  0
    0.2710    1.3577    0.1406 H   0  0  0  0  0  0  0  0  0  0  0
   -1.1428    0.8860   -0.8069 H   0  0  0  0  0  0  0  0  0  0  0
   -2.9354   -0.2149    0.0426 H   0  0  0  0  0  0  0  0  0  0  0
   -3.4070   -0.0299    1.7284 H   0  0  0  0  0  0  0  0  0  0  0
   -3.2600   -2.3888    0.8533 H   0  0  0  0  0  0  0  0  0  0  0
   -2.4840   -2.0479    2.4017 H   0  0  0  0  0  0  0  0  0  0  0
   -0.0859   -2.7035   -1.0513 H   0  0  0  0  0  0  0  0  0  0  0
   -1.5243   -1.6790   -1.1664 H   0  0  0  0  0  0  0  0  0  0  0
   -1.2638   -3.5576    0.7174 H   0  0  0  0  0  0  0  0  0  0  0
   -0.3283   -2.3179    1.5536 H   0  0  0  0  0  0  0  0  0  0  0
   -0.7092   -0.0162    2.0806 H   0  0  0  0  0  0  0  0  0  0  0
  1  2  1  0  0  0  0
  1  5  1  0  0  0  0
  1 11  1  0  0  0  0
  1 12  1  0  0  0  0
  2  7  1  0  0  0  0
  2 13  1  0  0  0  0
  2 14  1  0  0  0  0
  3  4  1  0  0  0  0
  3  7  1  0  0  0  0
  3 15  1  0  0  0  0
  3 16  1  0  0  0  0
  4  6  1  0  0  0  0
  4 17  1  0  0  0  0
  4 18  1  0  0  0  0
  5  6  1  0  0  0  0
  5 19  1  0  0  0  0
  5 20  1  0  0  0  0
  6 21  1  0  0  0  0
  6 22  1  0  0  0  0
  7  8  1  0  0  0  0
  7 23  1  0  0  0  0
  8  9  2  0  0  0  0
  8 10  1  0  0  0  0
M  END
> <Energy>
9.585

> <Ring Energy>
None

$$$$
o9_mol_1

Vconf v2.1
 23 23  0  0  0  0  0  0  0  0999 V2000
    0.1143   -0.6984   -0.5359 C   0  0  0  0  0  0  0  0  0  0  0
   -0.2537    0.5184    0.3275 C   0  0  0  0  0  0  0  0  0  0  0
   -1.9886   -0.4844    1.8961 C   0  0  0  0  0  0  0  0  0  0  0
   -2.4102   -1.8731    1.3827 C   0  0  0  0  0  0  0  0  0  0  0
   -0.1682   -2.0519    0.1350 C   0  0  0  0  0  0  0  0  0  0  0
   -1.6715   -2.3733    0.1320 C   0  0  0  0  0  0  0  0  0  0  0
   -1.7358    0.5588    0.7770 C   0  0  0  0  0  0  0  0  0  0  0
   -2.0641    1.9340    1.2107 C   0  0  0  0  0  0  0  0  0  0  0
   -2.0407    2.8668    0.3773 O   0  0  0  0  0  0  0  0  0  0  0
   -2.3622    2.2076    2.3973 O   0  5  0  0  0  0  0  0  0  0  0
   -0.4254   -0.6423   -1.4818 H   0  0  0  0  0  0  0  0  0  0  0
    1.1822   -0.6440   -0.7509 H   0  0  0  0  0  0  0  0  0  0  0
   -0.0317    1.4032   -0.2745 H   0  0  0  0  0  0  0  0  0  0  0
    0.3935    0.5386    1.2052 H   0  0  0  0  0  0  0  0  0  0  0
   -1.0893   -0.5874    2.5052 H   0  0  0  0  0  0  0  0  0  0  0
   -2.7936   -0.1478    2.5509 H   0  0  0  0  0  0  0  0  0  0  0
   -3.4763   -1.8495    1.1555 H   0  0  0  0  0  0  0  0  0  0  0
   -2.2521   -2.5891    2.1898 H   0  0  0  0  0  0  0  0  0  0  0
    0.3430   -2.8226   -0.4425 H   0  0  0  0  0  0  0  0  0  0  0
    0.2264   -2.0635    1.1527 H   0  0  0  0  0  0  0  0  0  0  0
   -1.7944   -3.4559    0.0836 H   0  0  0  0  0  0  0  0  0  0  0
   -2.1359   -1.9423   -0.7553 H   0  0  0  0  0  0  0  0  0  0  0
   -2.3778    0.3292   -0.0729 H   0  0  0  0  0  0  0  0  0  0  0
  1  2  1  0  0  0  0
  1  5  1  0  0  0  0
  1 11  1  0  0  0  0
  1 12  1  0  0  0  0
  2  7  1  0  0  0  0
  2 13  1  0  0  0  0
  2 14  1  0  0  0  0
  3  4  1  0  0  0  0
  3  7  1  0  0  0  0
  3 15  1  0  0  0  0
  3 16  1  0  0  0  0
  4  6  1  0  0  0  0
  4 17  1  0  0  0  0
  4 18  1  0  0  0  0
  5  6  1  0  0  0  0
  5 19  1  0  0  0  0
  5 20  1  0  0  0  0
  6 21  1  0  0  0  0
  6 22  1  0  0  0  0
  7  8  1  0  0  0  0
  7 23  1  0  0  0  0
  8  9  2  0  0  0  0
  8 10  1  0  0  0  0
M  END
> <Energy>
9.7409

> <Ring Energy>
None

$$$$
o9_mol_1

Vconf v2.1
 23 23  0  0  0  0  0  0  0  0999 V2000
    0.2893   -0.7362   -0.2950 C   0  0  0  0  0  0  0  0  0  0  0
   -0.4576    0.5624    0.0469 C   0  0  0  0  0  0  0  0  0  0  0
   -2.6283   -0.3461    1.0157 C   0  0  0  0  0  0  0  0  0  0  0
   -2.4868   -1.8565    1.2772 C   0  0  0  0  0  0  0  0  0  0  0
   -0.6280   -1.9525   -0.4978 C   0  0  0  0  0  0  0  0  0  0  0
   -1.1534   -2.4853    0.8450 C   0  0  0  0  0  0  0  0  0  0  0
   -1.3466    0.4747    1.3127 C   0  0  0  0  0  0  0  0  0  0  0
   -1.6554    1.8456    1.7733 C   0  0  0  0  0  0  0  0  0  0  0
   -0.7307    2.5836    2.1803 O   0  0  0  0  0  0  0  0  0  0  0
   -2.8211    2.3068    1.7657 O   0  5  0  0  0  0  0  0  0  0  0
    1.0102   -0.9527    0.4941 H   0  0  0  0  0  0  0  0  0  0  0
    0.8402   -0.5700   -1.2216 H   0  0  0  0  0  0  0  0  0  0  0
    0.3070    1.3300    0.1916 H   0  0  0  0  0  0  0  0  0  0  0
   -1.0691    0.8548   -0.8077 H   0  0  0  0  0  0  0  0  0  0  0
   -2.9258   -0.1904   -0.0223 H   0  0  0  0  0  0  0  0  0  0  0
   -3.4492   -0.0060    1.6486 H   0  0  0  0  0  0  0  0  0  0  0
   -2.6117   -2.0364    2.3454 H   0  0  0  0  0  0  0  0  0  0  0
   -3.2969   -2.3632    0.7518 H   0  0  0  0  0  0  0  0  0  0  0
   -0.0372   -2.7405   -0.9658 H   0  0  0  0  0  0  0  0  0  0  0
   -1.4560   -1.6998   -1.1627 H   0  0  0  0  0  0  0  0  0  0  0
   -1.3066   -3.5613    0.7549 H   0  0  0  0  0  0  0  0  0  0  0
   -0.4081   -2.3159    1.6227 H   0  0  0  0  0  0  0  0  0  0  0
   -0.7903   -0.0140    2.1120 H   0  0  0  0  0  0  0  0  0  0  0
  1  2  1  0  0  0  0
  1  5  1  0  0  0  0
  1 11  1  0  0  0  0
  1 12  1  0  0  0  0
  2  7  1  0  0  0  0
  2 13  1  0  0  0  0
  2 14  1  0  0  0  0
  3  4  1  0  0  0  0
  3  7  1  0  0  0  0
  3 15  1  0  0  0  0
  3 16  1  0  0  0  0
  4  6  1  0  0  0  0
  4 17  1  0  0  0  0
  4 18  1  0  0  0  0
  5  6  1  0  0  0  0
  5 19  1  0  0  0  0
  5 20  1  0  0  0  0
  6 21  1  0  0  0  0
  6 22  1  0  0  0  0
  7  8  1  0  0  0  0
  7 23  1  0  0  0  0
  8  9  2  0  0  0  0
  8 10  1  0  0  0  0
M  END
> <Energy>
9.7409

> <Ring Energy>
None

$$$$
o9_mol_1

Vconf v2.1
 23 23  0  0  0  0  0  0  0  0999 V2000
    0.1000   -0.4653   -0.4937 C   0  0  0  0  0  0  0  0  0  0  0
   -1.1588    0.4231   -0.5263 C   0  0  0  0  0  0  0  0  0  0  0
   -2.8351   -0.3868    1.2238 C   0  0  0  0  0  0  0  0  0  0  0
   -2.2457   -1.7688    1.5574 C   0  0  0  0  0  0  0  0  0  0  0
    0.0190   -1.7086    0.4071 C   0  0  0  0  0  0  0  0  0  0  0
   -1.3699   -2.3660    0.4434 C   0  0  0  0  0  0  0  0  0  0  0
   -1.8285    0.7230    0.8351 C   0  0  0  0  0  0  0  0  0  0  0
   -0.8677    1.0977    1.8906 C   0  0  0  0  0  0  0  0  0  0  0
   -0.8666    0.5436    3.0122 O   0  0  0  0  0  0  0  0  0  0  0
   -0.0681    2.0398    1.6910 O   0  5  0  0  0  0  0  0  0  0  0
    0.2985   -0.7924   -1.5148 H   0  0  0  0  0  0  0  0  0  0  0
    0.9468    0.1378   -0.1642 H   0  0  0  0  0  0  0  0  0  0  0
   -1.8951   -0.0375   -1.1848 H   0  0  0  0  0  0  0  0  0  0  0
   -0.8697    1.3752   -0.9755 H   0  0  0  0  0  0  0  0  0  0  0
   -3.3993   -0.0475    2.0939 H   0  0  0  0  0  0  0  0  0  0  0
   -3.5401   -0.5107    0.4008 H   0  0  0  0  0  0  0  0  0  0  0
   -3.0807   -2.4489    1.7282 H   0  0  0  0  0  0  0  0  0  0  0
   -1.6697   -1.7111    2.4807 H   0  0  0  0  0  0  0  0  0  0  0
    0.7366   -2.4386    0.0302 H   0  0  0  0  0  0  0  0  0  0  0
    0.3200   -1.4391    1.4203 H   0  0  0  0  0  0  0  0  0  0  0
   -1.2338   -3.4248    0.6632 H   0  0  0  0  0  0  0  0  0  0  0
   -1.8656   -2.2752   -0.5234 H   0  0  0  0  0  0  0  0  0  0  0
   -2.4383    1.6122    0.6699 H   0  0  0  0  0  0  0  0  0  0  0
  1  2  1  0  0  0  0
  1  5  1  0  0  0  0
  1 11  1  0  0  0  0
  1 12  1  0  0  0  0
  2  7  1  0  0  0  0
  2 13  1  0  0  0  0
  2 14  1  0  0  0  0
  3  4  1  0  0  0  0
  3  7  1  0  0  0  0
  3 15  1  0  0  0  0
  3 16  1  0  0  0  0
  4  6  1  0  0  0  0
  4 17  1  0  0  0  0
  4 18  1  0  0  0  0
  5  6  1  0  0  0  0
  5 19  1  0  0  0  0
  5 20  1  0  0  0  0
  6 21  1  0  0  0  0
  6 22  1  0  0  0  0
  7  8  1  0  0  0  0
  7 23  1  0  0  0  0
  8  9  2  0  0  0  0
  8 10  1  0  0  0  0
M  END
> <Energy>
10.462

> <Ring Energy>
None

$$$$
o9_mol_1

Vconf v2.1
 23 23  0  0  0  0  0  0  0  0999 V2000
    0.0353   -0.4567   -0.5646 C   0  0  0  0  0  0  0  0  0  0  0
    0.0510    0.2622    0.7984 C   0  0  0  0  0  0  0  0  0  0  0
   -1.9391   -0.5060    2.2049 C   0  0  0  0  0  0  0  0  0  0  0
   -2.3769   -1.7514    1.4138 C   0  0  0  0  0  0  0  0  0  0  0
   -1.0118   -1.5715   -0.7216 C   0  0  0  0  0  0  0  0  0  0  0
   -1.2623   -2.3803    0.5612 C   0  0  0  0  0  0  0  0  0  0  0
   -1.3236    0.6558    1.3880 C   0  0  0  0  0  0  0  0  0  0  0
   -2.2274    1.2785    0.4017 C   0  0  0  0  0  0  0  0  0  0  0
   -3.4019    0.8808    0.2361 O   0  0  0  0  0  0  0  0  0  0  0
   -1.8389    2.2753   -0.2481 O   0  5  0  0  0  0  0  0  0  0  0
    1.0242   -0.8889   -0.7201 H   0  0  0  0  0  0  0  0  0  0  0
   -0.1351    0.2817   -1.3489 H   0  0  0  0  0  0  0  0  0  0  0
    0.5742   -0.3659    1.5192 H   0  0  0  0  0  0  0  0  0  0  0
    0.6372    1.1747    0.6747 H   0  0  0  0  0  0  0  0  0  0  0
   -2.8132   -0.1255    2.7357 H   0  0  0  0  0  0  0  0  0  0  0
   -1.2099   -0.8207    2.9525 H   0  0  0  0  0  0  0  0  0  0  0
   -2.7089   -2.4983    2.1353 H   0  0  0  0  0  0  0  0  0  0  0
   -3.2258   -1.5042    0.7768 H   0  0  0  0  0  0  0  0  0  0  0
   -0.6569   -2.2533   -1.4957 H   0  0  0  0  0  0  0  0  0  0  0
   -1.9511   -1.1371   -1.0665 H   0  0  0  0  0  0  0  0  0  0  0
   -1.5933   -3.3770    0.2696 H   0  0  0  0  0  0  0  0  0  0  0
   -0.3448   -2.4774    1.1419 H   0  0  0  0  0  0  0  0  0  0  0
   -1.1132    1.4360    2.1209 H   0  0  0  0  0  0  0  0  0  0  0
  1  2  1  0  0  0  0
  1  5  1  0  0  0  0
  1 11  1  0  0  0  0
  1 12  1  0  0  0  0
  2  7  1  0  0  0  0
  2 13  1  0  0  0  0
  2 14  1  0  0  0  0
  3  4  1  0  0  0  0
  3  7  1  0  0  0  0
  3 15  1  0  0  0  0
  3 16  1  0  0  0  0
  4  6  1  0  0  0  0
  4 17  1  0  0  0  0
  4 18  1  0  0  0  0
  5  6  1  0  0  0  0
  5 19  1  0  0  0  0
  5 20  1  0  0  0  0
  6 21  1  0  0  0  0
  6 22  1  0  0  0  0
  7  8  1  0  0  0  0
  7 23  1  0  0  0  0
  8  9  2  0  0  0  0
  8 10  1  0  0  0  0
M  END
> <Energy>
10.462

> <Ring Energy>
None

$$$$
o9_mol_1

Vconf v2.1
 23 23  0  0  0  0  0  0  0  0999 V2000
    0.2588   -0.5691   -0.2717 C   0  0  0  0  0  0  0  0  0  0  0
   -0.6458    0.6758   -0.2709 C   0  0  0  0  0  0  0  0  0  0  0
   -2.7954   -0.3121    0.6916 C   0  0  0  0  0  0  0  0  0  0  0
   -2.5028   -1.6897    1.3179 C   0  0  0  0  0  0  0  0  0  0  0
   -0.5045   -1.9031   -0.2982 C   0  0  0  0  0  0  0  0  0  0  0
   -1.0887   -2.2458    1.0817 C   0  0  0  0  0  0  0  0  0  0  0
   -1.7019    0.7686    0.8569 C   0  0  0  0  0  0  0  0  0  0  0
   -1.1559    0.8444    2.2254 C   0  0  0  0  0  0  0  0  0  0  0
    0.0747    0.8150    2.4505 O   0  0  0  0  0  0  0  0  0  0  0
   -1.9345    1.0056    3.1930 O   0  5  0  0  0  0  0  0  0  0  0
    0.8813   -0.5218   -1.1655 H   0  0  0  0  0  0  0  0  0  0  0
    0.9200   -0.5458    0.5952 H   0  0  0  0  0  0  0  0  0  0  0
   -1.1666    0.7155   -1.2281 H   0  0  0  0  0  0  0  0  0  0  0
   -0.0018    1.5553   -0.2091 H   0  0  0  0  0  0  0  0  0  0  0
   -3.7119    0.0629    1.1519 H   0  0  0  0  0  0  0  0  0  0  0
   -2.9964   -0.4475   -0.3710 H   0  0  0  0  0  0  0  0  0  0  0
   -3.2234   -2.3981    0.9076 H   0  0  0  0  0  0  0  0  0  0  0
   -2.6682   -1.6276    2.3950 H   0  0  0  0  0  0  0  0  0  0  0
    0.2087   -2.6855   -0.5619 H   0  0  0  0  0  0  0  0  0  0  0
   -1.2886   -1.8815   -1.0553 H   0  0  0  0  0  0  0  0  0  0  0
   -0.4218   -1.8751    1.8606 H   0  0  0  0  0  0  0  0  0  0  0
   -1.1403   -3.3313    1.1753 H   0  0  0  0  0  0  0  0  0  0  0
   -2.2069    1.7220    0.6941 H   0  0  0  0  0  0  0  0  0  0  0
  1  2  1  0  0  0  0
  1  5  1  0  0  0  0
  1 11  1  0  0  0  0
  1 12  1  0  0  0  0
  2  7  1  0  0  0  0
  2 13  1  0  0  0  0
  2 14  1  0  0  0  0
  3  4  1  0  0  0  0
  3  7  1  0  0  0  0
  3 15  1  0  0  0  0
  3 16  1  0  0  0  0
  4  6  1  0  0  0  0
  4 17  1  0  0  0  0
  4 18  1  0  0  0  0
  5  6  1  0  0  0  0
  5 19  1  0  0  0  0
  5 20  1  0  0  0  0
  6 21  1  0  0  0  0
  6 22  1  0  0  0  0
  7  8  1  0  0  0  0
  7 23  1  0  0  0  0
  8  9  2  0  0  0  0
  8 10  1  0  0  0  0
M  END
> <Energy>
10.463

> <Ring Energy>
None

$$$$
o9_mol_1

Vconf v2.1
 23 23  0  0  0  0  0  0  0  0999 V2000
    0.0978   -0.5342   -0.4913 C   0  0  0  0  0  0  0  0  0  0  0
    0.0004    0.5356    0.6106 C   0  0  0  0  0  0  0  0  0  0  0
   -1.7212   -0.5451    2.1569 C   0  0  0  0  0  0  0  0  0  0  0
   -2.4230   -1.7070    1.4267 C   0  0  0  0  0  0  0  0  0  0  0
   -0.3146   -1.9443   -0.0392 C   0  0  0  0  0  0  0  0  0  0  0
   -1.8429   -2.0822    0.0529 C   0  0  0  0  0  0  0  0  0  0  0
   -1.3736    0.6974    1.3047 C   0  0  0  0  0  0  0  0  0  0  0
   -2.4758    1.1307    0.4248 C   0  0  0  0  0  0  0  0  0  0  0
   -2.3072    1.3317   -0.7988 O   0  0  0  0  0  0  0  0  0  0  0
   -3.6027    1.3674    0.9173 O   0  5  0  0  0  0  0  0  0  0  0
    1.1379   -0.5774   -0.8155 H   0  0  0  0  0  0  0  0  0  0  0
   -0.5056   -0.2366   -1.3495 H   0  0  0  0  0  0  0  0  0  0  0
    0.7418    0.3016    1.3752 H   0  0  0  0  0  0  0  0  0  0  0
    0.2746    1.4954    0.1681 H   0  0  0  0  0  0  0  0  0  0  0
   -2.3833   -0.2253    2.9643 H   0  0  0  0  0  0  0  0  0  0  0
   -0.8073   -0.9223    2.6153 H   0  0  0  0  0  0  0  0  0  0  0
   -2.3688   -2.5835    2.0735 H   0  0  0  0  0  0  0  0  0  0  0
   -3.4759   -1.4524    1.2931 H   0  0  0  0  0  0  0  0  0  0  0
    0.0387   -2.6487   -0.7938 H   0  0  0  0  0  0  0  0  0  0  0
    0.1540   -2.1944    0.9127 H   0  0  0  0  0  0  0  0  0  0  0
   -2.3101   -1.4655   -0.7153 H   0  0  0  0  0  0  0  0  0  0  0
   -2.1088   -3.1213   -0.1458 H   0  0  0  0  0  0  0  0  0  0  0
   -1.2363    1.5115    2.0180 H   0  0  0  0  0  0  0  0  0  0  0
  1  2  1  0  0  0  0
  1  5  1  0  0  0  0
  1 11  1  0  0  0  0
  1 12  1  0  0  0  0
  2  7  1  0  0  0  0
  2 13  1  0  0  0  0
  2 14  1  0  0  0  0
  3  4  1  0  0  0  0
  3  7  1  0  0  0  0
  3 15  1  0  0  0  0
  3 16  1  0  0  0  0
  4  6  1  0  0  0  0
  4 17  1  0  0  0  0
  4 18  1  0  0  0  0
  5  6  1  0  0  0  0
  5 19  1  0  0  0  0
  5 20  1  0  0  0  0
  6 21  1  0  0  0  0
  6 22  1  0  0  0  0
  7  8  1  0  0  0  0
  7 23  1  0  0  0  0
  8  9  2  0  0  0  0
  8 10  1  0  0  0  0
M  END
> <Energy>
10.463

> <Ring Energy>
None

$$$$
o9_mol_1

Vconf v2.1
 23 23  0  0  0  0  0  0  0  0999 V2000
    0.2431   -0.5472   -0.2312 C   0  0  0  0  0  0  0  0  0  0  0
   -0.6916    0.6709   -0.2956 C   0  0  0  0  0  0  0  0  0  0  0
   -2.7879   -0.3781    0.7463 C   0  0  0  0  0  0  0  0  0  0  0
   -2.4100   -1.7101    1.4236 C   0  0  0  0  0  0  0  0  0  0  0
   -0.4965   -1.8926   -0.3282 C   0  0  0  0  0  0  0  0  0  0  0
   -1.0566   -2.3335    1.0328 C   0  0  0  0  0  0  0  0  0  0  0
   -1.7584    0.7730    0.8173 C   0  0  0  0  0  0  0  0  0  0  0
   -1.1973    1.0070    2.1618 C   0  0  0  0  0  0  0  0  0  0  0
   -0.4448    0.1795    2.7203 O   0  0  0  0  0  0  0  0  0  0  0
   -1.4608    2.0703    2.7675 O   0  5  0  0  0  0  0  0  0  0  0
    0.9272   -0.4792   -1.0777 H   0  0  0  0  0  0  0  0  0  0  0
    0.8368   -0.5136    0.6820 H   0  0  0  0  0  0  0  0  0  0  0
   -1.2036    0.6531   -1.2586 H   0  0  0  0  0  0  0  0  0  0  0
   -0.0741    1.5705   -0.2651 H   0  0  0  0  0  0  0  0  0  0  0
   -3.7052   -0.0300    1.2226 H   0  0  0  0  0  0  0  0  0  0  0
   -3.0199   -0.5733   -0.3004 H   0  0  0  0  0  0  0  0  0  0  0
   -3.1924   -2.4279    1.1754 H   0  0  0  0  0  0  0  0  0  0  0
   -2.4225   -1.5698    2.5056 H   0  0  0  0  0  0  0  0  0  0  0
    0.2265   -2.6442   -0.6471 H   0  0  0  0  0  0  0  0  0  0  0
   -1.2905   -1.8424   -1.0744 H   0  0  0  0  0  0  0  0  0  0  0
   -0.3220   -2.1075    1.8067 H   0  0  0  0  0  0  0  0  0  0  0
   -1.1850   -3.4157    1.0107 H   0  0  0  0  0  0  0  0  0  0  0
   -2.3264    1.6718    0.5708 H   0  0  0  0  0  0  0  0  0  0  0
  1  2  1  0  0  0  0
  1  5  1  0  0  0  0
  1 11  1  0  0  0  0
  1 12  1  0  0  0  0
  2  7  1  0  0  0  0
  2 13  1  0  0  0  0
  2 14  1  0  0  0  0
  3  4  1  0  0  0  0
  3  7  1  0  0  0  0
  3 15  1  0  0  0  0
  3 16  1  0  0  0  0
  4  6  1  0  0  0  0
  4 17  1  0  0  0  0
  4 18  1  0  0  0  0
  5  6  1  0  0  0  0
  5 19  1  0  0  0  0
  5 20  1  0  0  0  0
  6 21  1  0  0  0  0
  6 22  1  0  0  0  0
  7  8  1  0  0  0  0
  7 23  1  0  0  0  0
  8  9  2  0  0  0  0
  8 10  1  0  0  0  0
M  END
> <Energy>
11.185

> <Ring Energy>
None

$$$$
o9_mol_1

Vconf v2.1
 23 23  0  0  0  0  0  0  0  0999 V2000
   -0.0111   -0.5096   -0.5586 C   0  0  0  0  0  0  0  0  0  0  0
   -0.0519    0.5762    0.5281 C   0  0  0  0  0  0  0  0  0  0  0
   -1.7010   -0.5390    2.1459 C   0  0  0  0  0  0  0  0  0  0  0
   -2.4031   -1.7111    1.4325 C   0  0  0  0  0  0  0  0  0  0  0
   -0.2542   -1.9284   -0.0162 C   0  0  0  0  0  0  0  0  0  0  0
   -1.7529   -2.2304    0.1361 C   0  0  0  0  0  0  0  0  0  0  0
   -1.3809    0.7171    1.3035 C   0  0  0  0  0  0  0  0  0  0  0
   -2.5045    1.2005    0.4783 C   0  0  0  0  0  0  0  0  0  0  0
   -2.9416    0.5491   -0.4950 O   0  0  0  0  0  0  0  0  0  0  0
   -3.0361    2.3035    0.7390 O   0  5  0  0  0  0  0  0  0  0  0
    0.9834   -0.4876   -1.0053 H   0  0  0  0  0  0  0  0  0  0  0
   -0.7343   -0.2811   -1.3411 H   0  0  0  0  0  0  0  0  0  0  0
    0.7415    0.3652    1.2462 H   0  0  0  0  0  0  0  0  0  0  0
    0.1748    1.5337    0.0555 H   0  0  0  0  0  0  0  0  0  0  0
   -2.3531   -0.2301    2.9638 H   0  0  0  0  0  0  0  0  0  0  0
   -0.7757   -0.9054    2.5896 H   0  0  0  0  0  0  0  0  0  0  0
   -2.4424   -2.5389    2.1411 H   0  0  0  0  0  0  0  0  0  0  0
   -3.4305   -1.4206    1.2075 H   0  0  0  0  0  0  0  0  0  0  0
    0.1527   -2.6333   -0.7422 H   0  0  0  0  0  0  0  0  0  0  0
    0.2668   -2.0729    0.9311 H   0  0  0  0  0  0  0  0  0  0  0
   -2.2852   -1.8169   -0.7214 H   0  0  0  0  0  0  0  0  0  0  0
   -1.8838   -3.3123    0.1108 H   0  0  0  0  0  0  0  0  0  0  0
   -1.1889    1.5034    2.0356 H   0  0  0  0  0  0  0  0  0  0  0
  1  2  1  0  0  0  0
  1  5  1  0  0  0  0
  1 11  1  0  0  0  0
  1 12  1  0  0  0  0
  2  7  1  0  0  0  0
  2 13  1  0  0  0  0
  2 14  1  0  0  0  0
  3  4  1  0  0  0  0
  3  7  1  0  0  0  0
  3 15  1  0  0  0  0
  3 16  1  0  0  0  0
  4  6  1  0  0  0  0
  4 17  1  0  0  0  0
  4 18  1  0  0  0  0
  5  6  1  0  0  0  0
  5 19  1  0  0  0  0
  5 20  1  0  0  0  0
  6 21  1  0  0  0  0
  6 22  1  0  0  0  0
  7  8  1  0  0  0  0
  7 23  1  0  0  0  0
  8  9  2  0  0  0  0
  8 10  1  0  0  0  0
M  END
> <Energy>
11.185

> <Ring Energy>
None

$$$$
o9_mol_1

Vconf v2.1
 23 23  0  0  0  0  0  0  0  0999 V2000
    0.1786   -0.4674   -0.3807 C   0  0  0  0  0  0  0  0  0  0  0
   -1.0719    0.4256   -0.4903 C   0  0  0  0  0  0  0  0  0  0  0
   -2.8399   -0.3758    1.1859 C   0  0  0  0  0  0  0  0  0  0  0
   -2.2331   -1.7436    1.5385 C   0  0  0  0  0  0  0  0  0  0  0
    0.0135   -1.8154    0.3458 C   0  0  0  0  0  0  0  0  0  0  0
   -1.4199   -2.3673    0.3918 C   0  0  0  0  0  0  0  0  0  0  0
   -1.8400    0.7402    0.8133 C   0  0  0  0  0  0  0  0  0  0  0
   -0.9849    1.1736    1.9354 C   0  0  0  0  0  0  0  0  0  0  0
   -0.1750    0.4005    2.4909 O   0  0  0  0  0  0  0  0  0  0  0
   -1.0744    2.3460    2.3658 O   0  5  0  0  0  0  0  0  0  0  0
    0.5138   -0.6757   -1.3975 H   0  0  0  0  0  0  0  0  0  0  0
    0.9697    0.0944    0.1181 H   0  0  0  0  0  0  0  0  0  0  0
   -1.7633   -0.0284   -1.2009 H   0  0  0  0  0  0  0  0  0  0  0
   -0.7457    1.3756   -0.9178 H   0  0  0  0  0  0  0  0  0  0  0
   -3.4309   -0.0403    2.0395 H   0  0  0  0  0  0  0  0  0  0  0
   -3.5224   -0.5161    0.3460 H   0  0  0  0  0  0  0  0  0  0  0
   -3.0589   -2.4172    1.7681 H   0  0  0  0  0  0  0  0  0  0  0
   -1.6136   -1.6562    2.4309 H   0  0  0  0  0  0  0  0  0  0  0
    0.6416   -2.5458   -0.1655 H   0  0  0  0  0  0  0  0  0  0  0
    0.3885   -1.7199    1.3650 H   0  0  0  0  0  0  0  0  0  0  0
   -1.9219   -2.2163   -0.5640 H   0  0  0  0  0  0  0  0  0  0  0
   -1.3552   -3.4389    0.5787 H   0  0  0  0  0  0  0  0  0  0  0
   -2.4667    1.5994    0.5681 H   0  0  0  0  0  0  0  0  0  0  0
  1  2  1  0  0  0  0
  1  5  1  0  0  0  0
  1 11  1  0  0  0  0
  1 12  1  0  0  0  0
  2  7  1  0  0  0  0
  2 13  1  0  0  0  0
  2 14  1  0  0  0  0
  3  4  1  0  0  0  0
  3  7  1  0  0  0  0
  3 15  1  0  0  0  0
  3 16  1  0  0  0  0
  4  6  1  0  0  0  0
  4 17  1  0  0  0  0
  4 18  1  0  0  0  0
  5  6  1  0  0  0  0
  5 19  1  0  0  0  0
  5 20  1  0  0  0  0
  6 21  1  0  0  0  0
  6 22  1  0  0  0  0
  7  8  1  0  0  0  0
  7 23  1  0  0  0  0
  8  9  2  0  0  0  0
  8 10  1  0  0  0  0
M  END
> <Energy>
11.185

> <Ring Energy>
None

$$$$
o9_mol_1

Vconf v2.1
 23 23  0  0  0  0  0  0  0  0999 V2000
    0.1186   -0.4568   -0.4573 C   0  0  0  0  0  0  0  0  0  0  0
    0.0319    0.2306    0.9186 C   0  0  0  0  0  0  0  0  0  0  0
   -2.1218   -0.5026    2.1025 C   0  0  0  0  0  0  0  0  0  0  0
   -2.4911   -1.6980    1.2091 C   0  0  0  0  0  0  0  0  0  0  0
   -0.7985   -1.6719   -0.6906 C   0  0  0  0  0  0  0  0  0  0  0
   -1.2718   -2.3935    0.5809 C   0  0  0  0  0  0  0  0  0  0  0
   -1.3678    0.6568    1.4160 C   0  0  0  0  0  0  0  0  0  0  0
   -2.1747    1.3838    0.4166 C   0  0  0  0  0  0  0  0  0  0  0
   -2.6094    0.8305   -0.6164 O   0  0  0  0  0  0  0  0  0  0  0
   -2.4543    2.5897    0.6045 O   0  5  0  0  0  0  0  0  0  0  0
    1.1498   -0.7880   -0.5856 H   0  0  0  0  0  0  0  0  0  0  0
   -0.0890    0.2814   -1.2333 H   0  0  0  0  0  0  0  0  0  0  0
    0.4818   -0.4249    1.6648 H   0  0  0  0  0  0  0  0  0  0  0
    0.6492    1.1292    0.8627 H   0  0  0  0  0  0  0  0  0  0  0
   -3.0430   -0.1088    2.5346 H   0  0  0  0  0  0  0  0  0  0  0
   -1.5039   -0.8726    2.9224 H   0  0  0  0  0  0  0  0  0  0  0
   -3.0058   -2.4265    1.8358 H   0  0  0  0  0  0  0  0  0  0  0
   -3.1820   -1.3792    0.4290 H   0  0  0  0  0  0  0  0  0  0  0
   -0.2489   -2.3885   -1.3022 H   0  0  0  0  0  0  0  0  0  0  0
   -1.6707   -1.3562   -1.2633 H   0  0  0  0  0  0  0  0  0  0  0
   -0.4592   -2.4747    1.3031 H   0  0  0  0  0  0  0  0  0  0  0
   -1.5773   -3.3996    0.2952 H   0  0  0  0  0  0  0  0  0  0  0
   -1.1740    1.3711    2.2180 H   0  0  0  0  0  0  0  0  0  0  0
  1  2  1  0  0  0  0
  1  5  1  0  0  0  0
  1 11  1  0  0  0  0
  1 12  1  0  0  0  0
  2  7  1  0  0  0  0
  2 13  1  0  0  0  0
  2 14  1  0  0  0  0
  3  4  1  0  0  0  0
  3  7  1  0  0  0  0
  3 15  1  0  0  0  0
  3 16  1  0  0  0  0
  4  6  1  0  0  0  0
  4 17  1  0  0  0  0
  4 18  1  0  0  0  0
  5  6  1  0  0  0  0
  5 19  1  0  0  0  0
  5 20  1  0  0  0  0
  6 21  1  0  0  0  0
  6 22  1  0  0  0  0
  7  8  1  0  0  0  0
  7 23  1  0  0  0  0
  8  9  2  0  0  0  0
  8 10  1  0  0  0  0
M  END
> <Energy>
11.185

> <Ring Energy>
None

$$$$
o9_mol_1

Vconf v2.1
 23 23  0  0  0  0  0  0  0  0999 V2000
    0.2764   -0.5291    0.0305 C   0  0  0  0  0  0  0  0  0  0  0
   -0.9175    0.3649   -0.3634 C   0  0  0  0  0  0  0  0  0  0  0
   -2.0844   -0.5197    1.7767 C   0  0  0  0  0  0  0  0  0  0  0
   -2.5226   -1.8323    1.1033 C   0  0  0  0  0  0  0  0  0  0  0
   -0.0602   -2.0078    0.3346 C   0  0  0  0  0  0  0  0  0  0  0
   -1.5246   -2.4172    0.0848 C   0  0  0  0  0  0  0  0  0  0  0
   -1.9056    0.6572    0.7929 C   0  0  0  0  0  0  0  0  0  0  0
   -1.5020    1.8628    1.5408 C   0  0  0  0  0  0  0  0  0  0  0
   -0.4176    1.8985    2.1643 O   0  0  0  0  0  0  0  0  0  0  0
   -2.2468    2.8683    1.5610 O   0  5  0  0  0  0  0  0  0  0  0
    0.9861   -0.5107   -0.7982 H   0  0  0  0  0  0  0  0  0  0  0
    0.7694   -0.0932    0.8995 H   0  0  0  0  0  0  0  0  0  0  0
   -1.4593   -0.1003   -1.1840 H   0  0  0  0  0  0  0  0  0  0  0
   -0.5211    1.3061   -0.7474 H   0  0  0  0  0  0  0  0  0  0  0
   -1.1596   -0.6896    2.3282 H   0  0  0  0  0  0  0  0  0  0  0
   -2.8574   -0.2491    2.4993 H   0  0  0  0  0  0  0  0  0  0  0
   -3.4807   -1.6756    0.6066 H   0  0  0  0  0  0  0  0  0  0  0
   -2.6677   -2.5698    1.8935 H   0  0  0  0  0  0  0  0  0  0  0
    0.1900   -2.2232    1.3740 H   0  0  0  0  0  0  0  0  0  0  0
    0.5733   -2.6334   -0.2945 H   0  0  0  0  0  0  0  0  0  0  0
   -1.5855   -3.5034    0.1456 H   0  0  0  0  0  0  0  0  0  0  0
   -1.8176   -2.1333   -0.9247 H   0  0  0  0  0  0  0  0  0  0  0
   -2.8769    0.8606    0.3417 H   0  0  0  0  0  0  0  0  0  0  0
  1  2  1  0  0  0  0
  1  5  1  0  0  0  0
  1 11  1  0  0  0  0
  1 12  1  0  0  0  0
  2  7  1  0  0  0  0
  2 13  1  0  0  0  0
  2 14  1  0  0  0  0
  3  4  1  0  0  0  0
  3  7  1  0  0  0  0
  3 15  1  0  0  0  0
  3 16  1  0  0  0  0
  4  6  1  0  0  0  0
  4 17  1  0  0  0  0
  4 18  1  0  0  0  0
  5  6  1  0  0  0  0
  5 19  1  0  0  0  0
  5 20  1  0  0  0  0
  6 21  1  0  0  0  0
  6 22  1  0  0  0  0
  7  8  1  0  0  0  0
  7 23  1  0  0  0  0
  8  9  2  0  0  0  0
  8 10  1  0  0  0  0
M  END
> <Energy>
12.111

> <Ring Energy>
None

$$$$
o9_mol_1

Vconf v2.1
 23 23  0  0  0  0  0  0  0  0999 V2000
   -0.0251   -0.4785   -0.4437 C   0  0  0  0  0  0  0  0  0  0  0
   -0.0975    0.2273    0.9261 C   0  0  0  0  0  0  0  0  0  0  0
   -2.6050   -0.4323    0.9580 C   0  0  0  0  0  0  0  0  0  0  0
   -2.3137   -1.8673    1.4317 C   0  0  0  0  0  0  0  0  0  0  0
   -0.5844   -1.9198   -0.4896 C   0  0  0  0  0  0  0  0  0  0  0
   -1.0270   -2.5006    0.8672 C   0  0  0  0  0  0  0  0  0  0  0
   -1.5317    0.5945    1.3807 C   0  0  0  0  0  0  0  0  0  0  0
   -1.9151    1.9321    0.8913 C   0  0  0  0  0  0  0  0  0  0  0
   -2.0069    2.1652   -0.3348 O   0  0  0  0  0  0  0  0  0  0  0
   -2.1561    2.8531    1.7036 O   0  5  0  0  0  0  0  0  0  0  0
    1.0254   -0.5172   -0.7365 H   0  0  0  0  0  0  0  0  0  0  0
   -0.5527    0.1287   -1.1795 H   0  0  0  0  0  0  0  0  0  0  0
    0.3629   -0.4061    1.6813 H   0  0  0  0  0  0  0  0  0  0  0
    0.5077    1.1335    0.8703 H   0  0  0  0  0  0  0  0  0  0  0
   -2.7203   -0.4277   -0.1259 H   0  0  0  0  0  0  0  0  0  0  0
   -3.5596   -0.1313    1.3951 H   0  0  0  0  0  0  0  0  0  0  0
   -2.2633   -1.8798    2.5210 H   0  0  0  0  0  0  0  0  0  0  0
   -3.1565   -2.4878    1.1249 H   0  0  0  0  0  0  0  0  0  0  0
   -1.4315   -1.9511   -1.1758 H   0  0  0  0  0  0  0  0  0  0  0
    0.1924   -2.5695   -0.8934 H   0  0  0  0  0  0  0  0  0  0  0
   -1.2119   -3.5661    0.7332 H   0  0  0  0  0  0  0  0  0  0  0
   -0.2185   -2.4016    1.5897 H   0  0  0  0  0  0  0  0  0  0  0
   -1.5233    0.6335    2.4702 H   0  0  0  0  0  0  0  0  0  0  0
  1  2  1  0  0  0  0
  1  5  1  0  0  0  0
  1 11  1  0  0  0  0
  1 12  1  0  0  0  0
  2  7  1  0  0  0  0
  2 13  1  0  0  0  0
  2 14  1  0  0  0  0
  3  4  1  0  0  0  0
  3  7  1  0  0  0  0
  3 15  1  0  0  0  0
  3 16  1  0  0  0  0
  4  6  1  0  0  0  0
  4 17  1  0  0  0  0
  4 18  1  0  0  0  0
  5  6  1  0  0  0  0
  5 19  1  0  0  0  0
  5 20  1  0  0  0  0
  6 21  1  0  0  0  0
  6 22  1  0  0  0  0
  7  8  1  0  0  0  0
  7 23  1  0  0  0  0
  8  9  2  0  0  0  0
  8 10  1  0  0  0  0
M  END
> <Energy>
12.111

> <Ring Energy>
None

$$$$
o9_mol_1

Vconf v2.1
 23 23  0  0  0  0  0  0  0  0999 V2000
    0.1687   -0.4913   -0.2527 C   0  0  0  0  0  0  0  0  0  0  0
   -1.1143    0.3429   -0.4197 C   0  0  0  0  0  0  0  0  0  0  0
   -2.2893   -0.5334    1.7338 C   0  0  0  0  0  0  0  0  0  0  0
   -2.5960   -1.7873    0.8928 C   0  0  0  0  0  0  0  0  0  0  0
   -0.0052   -1.8044    0.5297 C   0  0  0  0  0  0  0  0  0  0  0
   -1.3599   -2.4996    0.2930 C   0  0  0  0  0  0  0  0  0  0  0
   -1.8696    0.6914    0.8852 C   0  0  0  0  0  0  0  0  0  0  0
   -1.1299    1.6705    1.7012 C   0  0  0  0  0  0  0  0  0  0  0
   -0.0423    1.3683    2.2396 O   0  0  0  0  0  0  0  0  0  0  0
   -1.5943    2.8193    1.8794 O   0  5  0  0  0  0  0  0  0  0  0
    0.5295   -0.7370   -1.2520 H   0  0  0  0  0  0  0  0  0  0  0
    0.9298    0.1131    0.2416 H   0  0  0  0  0  0  0  0  0  0  0
   -1.7928   -0.1989   -1.0782 H   0  0  0  0  0  0  0  0  0  0  0
   -0.8490    1.2712   -0.9271 H   0  0  0  0  0  0  0  0  0  0  0
   -1.5305   -0.7776    2.4767 H   0  0  0  0  0  0  0  0  0  0  0
   -3.1968   -0.2642    2.2761 H   0  0  0  0  0  0  0  0  0  0  0
   -3.2765   -1.5107    0.0869 H   0  0  0  0  0  0  0  0  0  0  0
   -3.1142   -2.5002    1.5356 H   0  0  0  0  0  0  0  0  0  0  0
    0.1389   -1.6183    1.5928 H   0  0  0  0  0  0  0  0  0  0  0
    0.7840   -2.4859    0.2117 H   0  0  0  0  0  0  0  0  0  0  0
   -1.5082   -2.6173   -0.7807 H   0  0  0  0  0  0  0  0  0  0  0
   -1.2995   -3.4949    0.7338 H   0  0  0  0  0  0  0  0  0  0  0
   -2.7944    1.1752    0.5656 H   0  0  0  0  0  0  0  0  0  0  0
  1  2  1  0  0  0  0
  1  5  1  0  0  0  0
  1 11  1  0  0  0  0
  1 12  1  0  0  0  0
  2  7  1  0  0  0  0
  2 13  1  0  0  0  0
  2 14  1  0  0  0  0
  3  4  1  0  0  0  0
  3  7  1  0  0  0  0
  3 15  1  0  0  0  0
  3 16  1  0  0  0  0
  4  6  1  0  0  0  0
  4 17  1  0  0  0  0
  4 18  1  0  0  0  0
  5  6  1  0  0  0  0
  5 19  1  0  0  0  0
  5 20  1  0  0  0  0
  6 21  1  0  0  0  0
  6 22  1  0  0  0  0
  7  8  1  0  0  0  0
  7 23  1  0  0  0  0
  8  9  2  0  0  0  0
  8 10  1  0  0  0  0
M  END
> <Energy>
12.153

> <Ring Energy>
None

$$$$
o9_mol_1

Vconf v2.1
 23 23  0  0  0  0  0  0  0  0999 V2000
    0.1728   -0.4921   -0.2465 C   0  0  0  0  0  0  0  0  0  0  0
   -0.1129    0.1471    1.1246 C   0  0  0  0  0  0  0  0  0  0  0
   -2.6444   -0.4639    1.1861 C   0  0  0  0  0  0  0  0  0  0  0
   -2.1559   -1.8733    1.5714 C   0  0  0  0  0  0  0  0  0  0  0
   -0.7560   -1.6575   -0.6282 C   0  0  0  0  0  0  0  0  0  0  0
   -1.1836   -2.5341    0.5649 C   0  0  0  0  0  0  0  0  0  0  0
   -1.5641    0.6317    1.3562 C   0  0  0  0  0  0  0  0  0  0  0
   -1.8820    1.8176    0.5413 C   0  0  0  0  0  0  0  0  0  0  0
   -1.9518    1.7418   -0.7051 O   0  0  0  0  0  0  0  0  0  0  0
   -2.1039    2.9189    1.0936 O   0  5  0  0  0  0  0  0  0  0  0
    1.1963   -0.8674   -0.2237 H   0  0  0  0  0  0  0  0  0  0  0
    0.1112    0.2732   -1.0207 H   0  0  0  0  0  0  0  0  0  0  0
    0.1383   -0.5766    1.8998 H   0  0  0  0  0  0  0  0  0  0  0
    0.5615    0.9953    1.2480 H   0  0  0  0  0  0  0  0  0  0  0
   -3.0286   -0.4846    0.1666 H   0  0  0  0  0  0  0  0  0  0  0
   -3.4795   -0.2089    1.8403 H   0  0  0  0  0  0  0  0  0  0  0
   -1.6788   -1.8232    2.5506 H   0  0  0  0  0  0  0  0  0  0  0
   -3.0327   -2.5161    1.6613 H   0  0  0  0  0  0  0  0  0  0  0
   -1.6347   -1.2714   -1.1423 H   0  0  0  0  0  0  0  0  0  0  0
   -0.2199   -2.2895   -1.3363 H   0  0  0  0  0  0  0  0  0  0  0
   -0.2892   -2.8558    1.0991 H   0  0  0  0  0  0  0  0  0  0  0
   -1.6704   -3.4223    0.1618 H   0  0  0  0  0  0  0  0  0  0  0
   -1.6036    0.9423    2.4019 H   0  0  0  0  0  0  0  0  0  0  0
  1  2  1  0  0  0  0
  1  5  1  0  0  0  0
  1 11  1  0  0  0  0
  1 12  1  0  0  0  0
  2  7  1  0  0  0  0
  2 13  1  0  0  0  0
  2 14  1  0  0  0  0
  3  4  1  0  0  0  0
  3  7  1  0  0  0  0
  3 15  1  0  0  0  0
  3 16  1  0  0  0  0
  4  6  1  0  0  0  0
  4 17  1  0  0  0  0
  4 18  1  0  0  0  0
  5  6  1  0  0  0  0
  5 19  1  0  0  0  0
  5 20  1  0  0  0  0
  6 21  1  0  0  0  0
  6 22  1  0  0  0  0
  7  8  1  0  0  0  0
  7 23  1  0  0  0  0
  8  9  2  0  0  0  0
  8 10  1  0  0  0  0
M  END
> <Energy>
12.153

> <Ring Energy>
None

$$$$
o9_mol_1

Vconf v2.1
 23 23  0  0  0  0  0  0  0  0999 V2000
    0.1708   -0.4718   -0.1845 C   0  0  0  0  0  0  0  0  0  0  0
   -1.1303    0.3211   -0.4094 C   0  0  0  0  0  0  0  0  0  0  0
   -2.1463   -0.5446    1.8016 C   0  0  0  0  0  0  0  0  0  0  0
   -2.5393   -1.8255    1.0400 C   0  0  0  0  0  0  0  0  0  0  0
   -0.0076   -1.8812    0.4178 C   0  0  0  0  0  0  0  0  0  0  0
   -1.4093   -2.4877    0.2156 C   0  0  0  0  0  0  0  0  0  0  0
   -1.9012    0.6757    0.8827 C   0  0  0  0  0  0  0  0  0  0  0
   -1.2526    1.7923    1.6010 C   0  0  0  0  0  0  0  0  0  0  0
   -0.8566    1.6781    2.7821 O   0  0  0  0  0  0  0  0  0  0  0
   -1.1101    2.8967    1.0296 O   0  5  0  0  0  0  0  0  0  0  0
    0.6545   -0.5818   -1.1561 H   0  0  0  0  0  0  0  0  0  0  0
    0.8350    0.1052    0.4595 H   0  0  0  0  0  0  0  0  0  0  0
   -1.7873   -0.2500   -1.0639 H   0  0  0  0  0  0  0  0  0  0  0
   -0.8781    1.2420   -0.9388 H   0  0  0  0  0  0  0  0  0  0  0
   -1.2684   -0.7462    2.4147 H   0  0  0  0  0  0  0  0  0  0  0
   -2.9636   -0.2939    2.4784 H   0  0  0  0  0  0  0  0  0  0  0
   -3.3741   -1.5971    0.3758 H   0  0  0  0  0  0  0  0  0  0  0
   -2.8855   -2.5518    1.7763 H   0  0  0  0  0  0  0  0  0  0  0
    0.2288   -1.8599    1.4810 H   0  0  0  0  0  0  0  0  0  0  0
    0.7167   -2.5417   -0.0609 H   0  0  0  0  0  0  0  0  0  0  0
   -1.3619   -3.5405    0.4972 H   0  0  0  0  0  0  0  0  0  0  0
   -1.6630   -2.4416   -0.8441 H   0  0  0  0  0  0  0  0  0  0  0
   -2.8825    1.0353    0.5695 H   0  0  0  0  0  0  0  0  0  0  0
  1  2  1  0  0  0  0
  1  5  1  0  0  0  0
  1 11  1  0  0  0  0
  1 12  1  0  0  0  0
  2  7  1  0  0  0  0
  2 13  1  0  0  0  0
  2 14  1  0  0  0  0
  3  4  1  0  0  0  0
  3  7  1  0  0  0  0
  3 15  1  0  0  0  0
  3 16  1  0  0  0  0
  4  6  1  0  0  0  0
  4 17  1  0  0  0  0
  4 18  1  0  0  0  0
  5  6  1  0  0  0  0
  5 19  1  0  0  0  0
  5 20  1  0  0  0  0
  6 21  1  0  0  0  0
  6 22  1  0  0  0  0
  7  8  1  0  0  0  0
  7 23  1  0  0  0  0
  8  9  2  0  0  0  0
  8 10  1  0  0  0  0
M  END
> <Energy>
12.69

> <Ring Energy>
None

$$$$
o9_mol_1

Vconf v2.1
 23 23  0  0  0  0  0  0  0  0999 V2000
   -0.0363   -0.4456   -0.4592 C   0  0  0  0  0  0  0  0  0  0  0
   -0.1128    0.1925    0.9405 C   0  0  0  0  0  0  0  0  0  0  0
   -2.5890   -0.4887    1.2143 C   0  0  0  0  0  0  0  0  0  0  0
   -2.0876   -1.8826    1.6393 C   0  0  0  0  0  0  0  0  0  0  0
   -0.7901   -1.7823   -0.6204 C   0  0  0  0  0  0  0  0  0  0  0
   -1.0440   -2.5338    0.7004 C   0  0  0  0  0  0  0  0  0  0  0
   -1.5310    0.6289    1.3738 C   0  0  0  0  0  0  0  0  0  0  0
   -1.9346    1.8785    0.6962 C   0  0  0  0  0  0  0  0  0  0  0
   -2.9632    1.9443   -0.0127 O   0  0  0  0  0  0  0  0  0  0  0
   -1.2480    2.9141    0.8466 O   0  5  0  0  0  0  0  0  0  0  0
    1.0177   -0.6276   -0.6744 H   0  0  0  0  0  0  0  0  0  0  0
   -0.4136    0.2630   -1.1970 H   0  0  0  0  0  0  0  0  0  0  0
    0.2771   -0.5109    1.6749 H   0  0  0  0  0  0  0  0  0  0  0
    0.5475    1.0619    0.9526 H   0  0  0  0  0  0  0  0  0  0  0
   -2.9479   -0.5340    0.1866 H   0  0  0  0  0  0  0  0  0  0  0
   -3.4415   -0.2335    1.8443 H   0  0  0  0  0  0  0  0  0  0  0
   -1.6652   -1.8130    2.6429 H   0  0  0  0  0  0  0  0  0  0  0
   -2.9542   -2.5431    1.6852 H   0  0  0  0  0  0  0  0  0  0  0
   -1.7383   -1.6113   -1.1288 H   0  0  0  0  0  0  0  0  0  0  0
   -0.1902   -2.4271   -1.2641 H   0  0  0  0  0  0  0  0  0  0  0
   -1.3957   -3.5363    0.4524 H   0  0  0  0  0  0  0  0  0  0  0
   -0.0978   -2.6394    1.2325 H   0  0  0  0  0  0  0  0  0  0  0
   -1.4733    0.8572    2.4391 H   0  0  0  0  0  0  0  0  0  0  0
  1  2  1  0  0  0  0
  1  5  1  0  0  0  0
  1 11  1  0  0  0  0
  1 12  1  0  0  0  0
  2  7  1  0  0  0  0
  2 13  1  0  0  0  0
  2 14  1  0  0  0  0
  3  4  1  0  0  0  0
  3  7  1  0  0  0  0
  3 15  1  0  0  0  0
  3 16  1  0  0  0  0
  4  6  1  0  0  0  0
  4 17  1  0  0  0  0
  4 18  1  0  0  0  0
  5  6  1  0  0  0  0
  5 19  1  0  0  0  0
  5 20  1  0  0  0  0
  6 21  1  0  0  0  0
  6 22  1  0  0  0  0
  7  8  1  0  0  0  0
  7 23  1  0  0  0  0
  8  9  2  0  0  0  0
  8 10  1  0  0  0  0
M  END
> <Energy>
12.69

> <Ring Energy>
None

$$$$
