o1

Vconf v2.1
 14 14  0  0  0  0  0  0  0  0999 V2000
    1.9100   -0.6440    0.4250 C   0  0  0  0  0  0  0  0  0  0  0
    2.0130    0.7450    0.6140 C   0  0  0  0  0  0  0  0  0  0  0
   -0.4900   -0.4230    0.1140 C   0  0  0  0  0  0  0  0  0  0  0
    0.6580   -1.2280    0.1750 C   0  0  0  0  0  0  0  0  0  0  0
   -0.3850    0.9660    0.3030 C   0  0  0  0  0  0  0  0  0  0  0
    0.8670    1.5710    0.5560 C   0  0  0  0  0  0  0  0  0  0  0
    0.9720    2.9700    0.7470 C   0  0  0  0  0  0  0  0  0  0  0
   -0.0370    3.7120    0.7170 O   0  0  0  0  0  0  0  0  0  0  0
    2.0790    3.5230    0.9530 O   0  5  0  0  0  0  0  0  0  0  0
    2.7460   -1.2280    0.4690 H   0  0  0  0  0  0  0  0  0  0  0
    2.9320    1.1520    0.7950 H   0  0  0  0  0  0  0  0  0  0  0
   -1.4010   -0.8450   -0.0680 H   0  0  0  0  0  0  0  0  0  0  0
    0.5830   -2.2370    0.0370 H   0  0  0  0  0  0  0  0  0  0  0
   -1.2320    1.5360    0.2550 H   0  0  0  0  0  0  0  0  0  0  0
  1  2  1  0  0  0  0
  1  4  2  0  0  0  0
  1 10  1  0  0  0  0
  2  6  2  0  0  0  0
  2 11  1  0  0  0  0
  3  4  1  0  0  0  0
  3  5  2  0  0  0  0
  3 12  1  0  0  0  0
  4 13  1  0  0  0  0
  5  6  1  0  0  0  0
  5 14  1  0  0  0  0
  6  7  1  0  0  0  0
  7  8  2  0  0  0  0
  7  9  1  0  0  0  0
M  END
> <Energy>
15.3

> <Ring Energy>
14.316

> <VC.Vconf.Error>
N/A

> <Time>
0.9828063

> <MaxConf>
N/A

$$$$
o2

Vconf v2.1
 17 17  0  0  0  0  0  0  0  0999 V2000
    1.9100   -0.3260    0.3570 C   0  0  0  0  0  0  0  0  0  0  0
    2.0130    1.0650    0.5260 C   0  0  0  0  0  0  0  0  0  0  0
   -0.5050   -0.1290    0.2130 C   0  0  0  0  0  0  0  0  0  0  0
    0.6500   -0.9330    0.2000 C   0  0  0  0  0  0  0  0  0  0  0
   -0.4010    1.2630    0.3830 C   0  0  0  0  0  0  0  0  0  0  0
    0.8600    1.8810    0.5420 C   0  0  0  0  0  0  0  0  0  0  0
    0.9640    3.2820    0.7130 C   0  0  0  0  0  0  0  0  0  0  0
    2.0750    3.8430    0.8580 O   0  0  0  0  0  0  0  0  0  0  0
    0.5590   -2.3900    0.0230 C   0  0  0  0  0  0  0  0  0  0  0
   -0.0520    4.0190    0.7250 O   0  5  0  0  0  0  0  0  0  0  0
    2.7560   -0.8970    0.3490 H   0  0  0  0  0  0  0  0  0  0  0
    2.9390    1.4810    0.6380 H   0  0  0  0  0  0  0  0  0  0  0
   -1.4260   -0.5530    0.1000 H   0  0  0  0  0  0  0  0  0  0  0
   -1.2540    1.8240    0.3900 H   0  0  0  0  0  0  0  0  0  0  0
   -0.4790   -2.7100   -0.0850 H   0  0  0  0  0  0  0  0  0  0  0
    1.1110   -2.6850   -0.8700 H   0  0  0  0  0  0  0  0  0  0  0
    0.9900   -2.8910    0.8920 H   0  0  0  0  0  0  0  0  0  0  0
  1  2  1  0  0  0  0
  1  4  2  0  0  0  0
  1 11  1  0  0  0  0
  2  6  2  0  0  0  0
  2 12  1  0  0  0  0
  3  4  1  0  0  0  0
  3  5  2  0  0  0  0
  3 13  1  0  0  0  0
  4  9  1  0  0  0  0
  5  6  1  0  0  0  0
  5 14  1  0  0  0  0
  6  7  1  0  0  0  0
  7  8  2  0  0  0  0
  7 10  1  0  0  0  0
  9 15  1  0  0  0  0
  9 16  1  0  0  0  0
  9 17  1  0  0  0  0
M  END
> <Energy>
15.861

> <Ring Energy>
15.269

> <VC.Vconf.Error>
N/A

> <Time>
1.1388073

> <MaxConf>
N/A

$$$$
o3

Vconf v2.1
 20 20  0  0  0  0  0  0  0  0999 V2000
    2.0180    0.0390    0.5200 C   0  0  0  0  0  0  0  0  0  0  0
    2.0770    1.4370    0.6460 C   0  0  0  0  0  0  0  0  0  0  0
   -0.3720    0.1760    0.1240 C   0  0  0  0  0  0  0  0  0  0  0
    0.7930   -0.6050    0.2610 C   0  0  0  0  0  0  0  0  0  0  0
   -0.3130    1.5740    0.2510 C   0  0  0  0  0  0  0  0  0  0  0
    0.9130    2.2270    0.5140 C   0  0  0  0  0  0  0  0  0  0  0
    0.9720    3.6340    0.6420 C   0  0  0  0  0  0  0  0  0  0  0
    2.0510    4.2250    0.8800 O   0  0  0  0  0  0  0  0  0  0  0
   -0.0530    4.3480    0.5230 O   0  5  0  0  0  0  0  0  0  0  0
    0.7250   -2.0730    0.1210 C   0  0  0  0  0  0  0  0  0  0  0
   -0.1080   -2.7240    1.2380 C   0  0  0  0  0  0  0  0  0  0  0
    2.8730   -0.5100    0.6180 H   0  0  0  0  0  0  0  0  0  0  0
    2.9790    1.8770    0.8350 H   0  0  0  0  0  0  0  0  0  0  0
   -1.2670   -0.2740   -0.0690 H   0  0  0  0  0  0  0  0  0  0  0
   -1.1730    2.1150    0.1480 H   0  0  0  0  0  0  0  0  0  0  0
    0.2800   -2.3210   -0.8440 H   0  0  0  0  0  0  0  0  0  0  0
    1.7270   -2.5050    0.1530 H   0  0  0  0  0  0  0  0  0  0  0
   -0.0960   -3.8060    1.1070 H   0  0  0  0  0  0  0  0  0  0  0
    0.3180   -2.4800    2.2120 H   0  0  0  0  0  0  0  0  0  0  0
   -1.1400   -2.3740    1.1950 H   0  0  0  0  0  0  0  0  0  0  0
  1  2  1  0  0  0  0
  1  4  2  0  0  0  0
  1 12  1  0  0  0  0
  2  6  2  0  0  0  0
  2 13  1  0  0  0  0
  3  4  1  0  0  0  0
  3  5  2  0  0  0  0
  3 14  1  0  0  0  0
  4 10  1  0  0  0  0
  5  6  1  0  0  0  0
  5 15  1  0  0  0  0
  6  7  1  0  0  0  0
  7  8  2  0  0  0  0
  7  9  1  0  0  0  0
 10 11  1  0  0  0  0
 10 16  1  0  0  0  0
 10 17  1  0  0  0  0
 11 18  1  0  0  0  0
 11 19  1  0  0  0  0
 11 20  1  0  0  0  0
M  END
> <Energy>
16.517

> <Ring Energy>
15.453

> <VC.Vconf.Error>
N/A

> <Time>
1.5288098

> <MaxConf>
N/A

$$$$
o4

Vconf v2.1
 14 14  0  0  0  0  0  0  0  0999 V2000
    1.9130   -0.3370    0.4480 C   0  0  0  0  0  0  0  0  0  0  0
    2.0080    1.0560    0.6050 C   0  0  0  0  0  0  0  0  0  0  0
   -0.4900   -0.1340    0.1380 C   0  0  0  0  0  0  0  0  0  0  0
    0.6630   -0.9370    0.2130 C   0  0  0  0  0  0  0  0  0  0  0
   -0.3900    1.2590    0.2950 C   0  0  0  0  0  0  0  0  0  0  0
    0.8590    1.8750    0.5310 C   0  0  0  0  0  0  0  0  0  0  0
    0.9580    3.2780    0.6890 C   0  0  0  0  0  0  0  0  0  0  0
   -0.0550    4.0140    0.6440 O   0  0  0  0  0  0  0  0  0  0  0
    2.0630    3.8400    0.8800 O   0  5  0  0  0  0  0  0  0  0  0
    0.5450   -2.6140    0.0230 Cl  0  0  0  0  0  0  0  0  0  0  0
    2.7580   -0.9070    0.5050 H   0  0  0  0  0  0  0  0  0  0  0
    2.9260    1.4710    0.7750 H   0  0  0  0  0  0  0  0  0  0  0
   -1.4040   -0.5550   -0.0320 H   0  0  0  0  0  0  0  0  0  0  0
   -1.2400    1.8230    0.2370 H   0  0  0  0  0  0  0  0  0  0  0
  1  2  1  0  0  0  0
  1  4  2  0  0  0  0
  1 11  1  0  0  0  0
  2  6  2  0  0  0  0
  2 12  1  0  0  0  0
  3  4  1  0  0  0  0
  3  5  2  0  0  0  0
  3 13  1  0  0  0  0
  4 10  1  0  0  0  0
  5  6  1  0  0  0  0
  5 14  1  0  0  0  0
  6  7  1  0  0  0  0
  7  8  2  0  0  0  0
  7  9  1  0  0  0  0
M  END
> <Energy>
15.269

> <Ring Energy>
17.609

> <VC.Vconf.Error>
N/A

> <Time>
1.248008

> <MaxConf>
N/A

$$$$
o5

Vconf v2.1
 14 14  0  0  0  0  0  0  0  0999 V2000
    1.7470   -0.4540    0.4250 C   0  0  0  0  0  0  0  0  0  0  0
    1.8390    0.9390    0.6100 C   0  0  0  0  0  0  0  0  0  0  0
   -0.6580   -0.2450    0.1150 C   0  0  0  0  0  0  0  0  0  0  0
    0.4950   -1.0440    0.1770 C   0  0  0  0  0  0  0  0  0  0  0
   -0.5620    1.1440    0.3010 C   0  0  0  0  0  0  0  0  0  0  0
    0.6870    1.7580    0.5510 C   0  0  0  0  0  0  0  0  0  0  0
    0.7810    3.1570    0.7370 C   0  0  0  0  0  0  0  0  0  0  0
   -0.2330    3.8920    0.7060 O   0  0  0  0  0  0  0  0  0  0  0
    1.8840    3.7190    0.9420 O   0  5  0  0  0  0  0  0  0  0  0
    3.1370   -1.4160    0.4990 Cl  0  0  0  0  0  0  0  0  0  0  0
    2.7510    1.3630    0.7900 H   0  0  0  0  0  0  0  0  0  0  0
   -1.5660   -0.6730   -0.0640 H   0  0  0  0  0  0  0  0  0  0  0
    0.4130   -2.0530    0.0400 H   0  0  0  0  0  0  0  0  0  0  0
   -1.4120    1.7080    0.2530 H   0  0  0  0  0  0  0  0  0  0  0
  1  2  1  0  0  0  0
  1  4  2  0  0  0  0
  1 10  1  0  0  0  0
  2  6  2  0  0  0  0
  2 11  1  0  0  0  0
  3  4  1  0  0  0  0
  3  5  2  0  0  0  0
  3 12  1  0  0  0  0
  4 13  1  0  0  0  0
  5  6  1  0  0  0  0
  5 14  1  0  0  0  0
  6  7  1  0  0  0  0
  7  8  2  0  0  0  0
  7  9  1  0  0  0  0
M  END
> <Energy>
15.261

> <Ring Energy>
17.836

> <VC.Vconf.Error>
N/A

> <Time>
0.7176046

> <MaxConf>
N/A

$$$$
o6

Vconf v2.1
 20 20  0  0  0  0  0  0  0  0999 V2000
    1.0310   -1.5240   -0.1600 C   0  0  0  0  0  0  0  0  0  0  0
    0.8630   -0.0150    0.0790 C   0  0  0  0  0  0  0  0  0  0  0
   -1.4690   -1.7710   -0.3870 C   0  0  0  0  0  0  0  0  0  0  0
   -0.2100   -2.2870    0.3270 C   0  0  0  0  0  0  0  0  0  0  0
   -1.6410   -0.2630   -0.1450 C   0  0  0  0  0  0  0  0  0  0  0
   -0.3990    0.5060   -0.6390 C   0  0  0  0  0  0  0  0  0  0  0
   -0.5620    1.9550   -0.4280 C   0  0  0  0  0  0  0  0  0  0  0
   -0.5540    2.7370   -1.4030 O   0  0  0  0  0  0  0  0  0  0  0
   -0.7080    2.4190    0.7260 O   0  5  0  0  0  0  0  0  0  0  0
    1.1760   -1.7080   -1.2250 H   0  0  0  0  0  0  0  0  0  0  0
    1.9070   -1.8780    0.3840 H   0  0  0  0  0  0  0  0  0  0  0
    1.7430    0.5030   -0.3050 H   0  0  0  0  0  0  0  0  0  0  0
    0.7820    0.1690    1.1520 H   0  0  0  0  0  0  0  0  0  0  0
   -2.3420   -2.2990   -0.0030 H   0  0  0  0  0  0  0  0  0  0  0
   -1.3820   -1.9590   -1.4580 H   0  0  0  0  0  0  0  0  0  0  0
   -0.0850   -3.3490    0.1140 H   0  0  0  0  0  0  0  0  0  0  0
   -0.3210   -2.1500    1.4030 H   0  0  0  0  0  0  0  0  0  0  0
   -2.5250    0.0810   -0.6840 H   0  0  0  0  0  0  0  0  0  0  0
   -1.7860   -0.0880    0.9230 H   0  0  0  0  0  0  0  0  0  0  0
   -0.2860    0.3240   -1.7090 H   0  0  0  0  0  0  0  0  0  0  0
  1  2  1  0  0  0  0
  1  4  1  0  0  0  0
  1 10  1  0  0  0  0
  1 11  1  0  0  0  0
  2  6  1  0  0  0  0
  2 12  1  0  0  0  0
  2 13  1  0  0  0  0
  3  4  1  0  0  0  0
  3  5  1  0  0  0  0
  3 14  1  0  0  0  0
  3 15  1  0  0  0  0
  4 16  1  0  0  0  0
  4 17  1  0  0  0  0
  5  6  1  0  0  0  0
  5 18  1  0  0  0  0
  5 19  1  0  0  0  0
  6  7  1  0  0  0  0
  6 20  1  0  0  0  0
  7  8  2  0  0  0  0
  7  9  1  0  0  0  0
M  END
> <Energy>
2.1153

> <Ring Energy>
None

> <VC.Vconf.Error>
N/A

> <Time>
0.780005

> <MaxConf>
N/A

$$$$
o7

Vconf v2.1
 23 23  0  0  0  0  0  0  0  0999 V2000
   -0.2250    0.3790    0.3320 C   0  0  0  0  0  0  0  0  0  0  0
    1.0990    0.7760   -0.3390 C   0  0  0  0  0  0  0  0  0  0  0
   -1.2870    0.0820   -1.9350 C   0  0  0  0  0  0  0  0  0  0  0
   -1.4170    0.7640   -0.5620 C   0  0  1  0  0  0  0  0  0  0  0
    0.0360    0.4770   -2.6090 C   0  0  0  0  0  0  0  0  0  0  0
    1.2310    0.0920   -1.7140 C   0  0  1  0  0  0  0  0  0  0  0
    2.5060    0.4510   -2.3570 C   0  0  0  0  0  0  0  0  0  0  0
    2.7650    1.6430   -2.6350 O   0  0  0  0  0  0  0  0  0  0  0
    3.3450   -0.4360   -2.6310 O   0  5  0  0  0  0  0  0  0  0  0
   -2.7350    0.3530    0.1090 C   0  0  0  0  0  0  0  0  0  0  0
   -0.2310   -0.6980    0.5080 H   0  0  0  0  0  0  0  0  0  0  0
   -0.3080    0.8950    1.2890 H   0  0  0  0  0  0  0  0  0  0  0
    1.9250    0.4700    0.3050 H   0  0  0  0  0  0  0  0  0  0  0
    1.1270    1.8600   -0.4600 H   0  0  0  0  0  0  0  0  0  0  0
   -2.1170    0.3900   -2.5730 H   0  0  0  0  0  0  0  0  0  0  0
   -1.3180   -1.0020   -1.8110 H   0  0  0  0  0  0  0  0  0  0  0
   -1.4200    1.8460   -0.7030 H   0  0  0  0  0  0  0  0  0  0  0
    0.0380    1.5540   -2.7860 H   0  0  0  0  0  0  0  0  0  0  0
    0.1120   -0.0400   -3.5670 H   0  0  0  0  0  0  0  0  0  0  0
    1.2140   -0.9890   -1.5640 H   0  0  0  0  0  0  0  0  0  0  0
   -2.8270    0.8550    1.0730 H   0  0  0  0  0  0  0  0  0  0  0
   -3.5740    0.6420   -0.5250 H   0  0  0  0  0  0  0  0  0  0  0
   -2.7550   -0.7270    0.2620 H   0  0  0  0  0  0  0  0  0  0  0
  1  2  1  0  0  0  0
  1  4  1  0  0  0  0
  1 11  1  0  0  0  0
  1 12  1  0  0  0  0
  2  6  1  0  0  0  0
  2 13  1  0  0  0  0
  2 14  1  0  0  0  0
  3  4  1  0  0  0  0
  3  5  1  0  0  0  0
  3 15  1  0  0  0  0
  3 16  1  0  0  0  0
  4 10  1  6  0  0  0
  4 17  1  0  0  0  0
  5  6  1  0  0  0  0
  5 18  1  0  0  0  0
  5 19  1  0  0  0  0
  6  7  1  1  0  0  0
  6 20  1  0  0  0  0
  7  8  2  0  0  0  0
  7  9  1  0  0  0  0
 10 21  1  0  0  0  0
 10 22  1  0  0  0  0
 10 23  1  0  0  0  0
M  END
> <Energy>
1.5008

> <Ring Energy>
None

> <VC.Vconf.Error>
N/A

> <Time>
0.9048058

> <MaxConf>
N/A

$$$$
o8

Vconf v2.1
 17 17  0  0  0  0  0  0  0  0999 V2000
   -0.4790   -0.5200    0.3580 C   0  0  0  0  0  0  0  0  0  0  0
   -1.4780   -0.3030   -0.7850 C   0  0  0  0  0  0  0  0  0  0  0
    0.3930    1.1840   -1.1830 C   0  0  0  0  0  0  0  0  0  0  0
   -1.1360    1.1100   -1.2740 C   0  0  0  0  0  0  0  0  0  0  0
    0.8140    0.1360   -0.1400 C   0  0  0  0  0  0  0  0  0  0  0
   -2.8830   -0.4570   -0.3730 C   0  0  0  0  0  0  0  0  0  0  0
   -3.3650    0.2570    0.5340 O   0  0  0  0  0  0  0  0  0  0  0
   -3.6100   -1.3090   -0.9310 O   0  5  0  0  0  0  0  0  0  0  0
   -0.8160   -0.0100    1.2630 H   0  0  0  0  0  0  0  0  0  0  0
   -0.3320   -1.5820    0.5590 H   0  0  0  0  0  0  0  0  0  0  0
   -1.2550   -1.0120   -1.5840 H   0  0  0  0  0  0  0  0  0  0  0
    0.8320    0.9350   -2.1490 H   0  0  0  0  0  0  0  0  0  0  0
    0.7090    2.1830   -0.8800 H   0  0  0  0  0  0  0  0  0  0  0
   -1.5720    1.8600   -0.6110 H   0  0  0  0  0  0  0  0  0  0  0
   -1.4790    1.2700   -2.2960 H   0  0  0  0  0  0  0  0  0  0  0
    1.3470    0.6050    0.6880 H   0  0  0  0  0  0  0  0  0  0  0
    1.4500   -0.6140   -0.6120 H   0  0  0  0  0  0  0  0  0  0  0
  1  2  1  0  0  0  0
  1  5  1  0  0  0  0
  1  9  1  0  0  0  0
  1 10  1  0  0  0  0
  2  4  1  0  0  0  0
  2  6  1  0  0  0  0
  2 11  1  0  0  0  0
  3  4  1  0  0  0  0
  3  5  1  0  0  0  0
  3 12  1  0  0  0  0
  3 13  1  0  0  0  0
  4 14  1  0  0  0  0
  4 15  1  0  0  0  0
  5 16  1  0  0  0  0
  5 17  1  0  0  0  0
  6  7  2  0  0  0  0
  6  8  1  0  0  0  0
M  END
> <Energy>
8.9695

> <Ring Energy>
None

> <VC.Vconf.Error>
N/A

> <Time>
0.7644049

> <MaxConf>
N/A

$$$$
o9

Vconf v2.1
 23 23  0  0  0  0  0  0  0  0999 V2000
   -0.2580   -0.7110   -0.7090 C   0  0  0  0  0  0  0  0  0  0  0
   -0.3920    0.5590    0.1510 C   0  0  0  0  0  0  0  0  0  0  0
   -2.1090   -0.5170    1.7470 C   0  0  0  0  0  0  0  0  0  0  0
   -2.5140   -1.7430    0.9100 C   0  0  0  0  0  0  0  0  0  0  0
   -0.0390   -1.9630    0.1580 C   0  0  0  0  0  0  0  0  0  0  0
   -1.3420   -2.6750    0.5580 C   0  0  0  0  0  0  0  0  0  0  0
   -1.7590    0.6980    0.8560 C   0  0  0  0  0  0  0  0  0  0  0
   -1.7710    1.9340    1.6580 C   0  0  0  0  0  0  0  0  0  0  0
   -0.9840    2.0770    2.6200 O   0  0  0  0  0  0  0  0  0  0  0
   -2.5740    2.8540    1.3870 O   0  5  0  0  0  0  0  0  0  0  0
   -1.1330   -0.8330   -1.3480 H   0  0  0  0  0  0  0  0  0  0  0
    0.6190   -0.5870   -1.3460 H   0  0  0  0  0  0  0  0  0  0  0
   -0.2570    1.4190   -0.5080 H   0  0  0  0  0  0  0  0  0  0  0
    0.4100    0.5700    0.8920 H   0  0  0  0  0  0  0  0  0  0  0
   -1.2710   -0.7630    2.4010 H   0  0  0  0  0  0  0  0  0  0  0
   -2.9670   -0.2570    2.3710 H   0  0  0  0  0  0  0  0  0  0  0
   -2.9990   -1.4130   -0.0090 H   0  0  0  0  0  0  0  0  0  0  0
   -3.2390   -2.3260    1.4800 H   0  0  0  0  0  0  0  0  0  0  0
    0.5690   -2.6720   -0.4040 H   0  0  0  0  0  0  0  0  0  0  0
    0.5110   -1.6890    1.0590 H   0  0  0  0  0  0  0  0  0  0  0
   -1.1290   -3.3090    1.4200 H   0  0  0  0  0  0  0  0  0  0  0
   -1.6570   -3.3150   -0.2660 H   0  0  0  0  0  0  0  0  0  0  0
   -2.5270    0.7930    0.0870 H   0  0  0  0  0  0  0  0  0  0  0
  1  2  1  0  0  0  0
  1  5  1  0  0  0  0
  1 11  1  0  0  0  0
  1 12  1  0  0  0  0
  2  7  1  0  0  0  0
  2 13  1  0  0  0  0
  2 14  1  0  0  0  0
  3  4  1  0  0  0  0
  3  7  1  0  0  0  0
  3 15  1  0  0  0  0
  3 16  1  0  0  0  0
  4  6  1  0  0  0  0
  4 17  1  0  0  0  0
  4 18  1  0  0  0  0
  5  6  1  0  0  0  0
  5 19  1  0  0  0  0
  5 20  1  0  0  0  0
  6 21  1  0  0  0  0
  6 22  1  0  0  0  0
  7  8  1  0  0  0  0
  7 23  1  0  0  0  0
  8  9  2  0  0  0  0
  8 10  1  0  0  0  0
M  END
> <Energy>
8.3129

> <Ring Energy>
None

> <VC.Vconf.Error>
N/A

> <Time>
2.0592132

> <MaxConf>
N/A

$$$$
