@<TRIPOS>MOLECULE
*****
  184   204     0     0     0
SMALL
NO_CHARGES

@<TRIPOS>ATOM
      1 C1          1.9780   -2.9130    2.5560 C.ar      1 OCT1        0.0000
      2 C2          3.7890   -0.8910    1.7980 C.ar      1 OCT1        0.0000
      3 C3          2.0950   -1.7370    3.3190 C.ar      1 OCT1        0.0000
      4 C4          2.8090   -3.1130    1.4400 C.ar      1 OCT1        0.0000
      5 C5          3.7500   -2.1260    1.0940 C.ar      1 OCT1        0.0000
      6 C6          2.8730   -0.6510    2.8620 C.ar      1 OCT1        0.0000
      7 O1          4.5480    0.2040    1.3130 O.3       1 OCT1        0.0000
      8 C7          2.9840    0.5840    3.7170 C.3       1 OCT1        0.0000
      9 C8          3.9320    1.3630    0.6550 C.3       1 OCT1        0.0000
     10 O2          3.6580    2.3950    1.6720 O.3       1 OCT1        0.0000
     11 C9          2.3640    2.5270    2.1880 C.ar      1 OCT1        0.0000
     12 C10         2.0150    1.6640    3.2190 C.ar      1 OCT1        0.0000
     13 C11         0.7110    1.8220    3.7590 C.ar      1 OCT1        0.0000
     14 C12         1.5080    3.4420    1.6300 C.ar      1 OCT1        0.0000
     15 C13        -0.1860    2.7330    3.1850 C.ar      1 OCT1        0.0000
     16 C14         0.2210    3.5300    2.1100 C.ar      1 OCT1        0.0000
     17 O3         -0.6470    4.3030    1.4010 O.3       1 OCT1        0.0000
     18 C15        -1.6530    2.7550    3.6810 C.3       1 OCT1        0.0000
     19 C16        -2.5740    1.8700    2.8770 C.ar      1 OCT1        0.0000
     20 C17        -3.1320    2.4120    1.6520 C.ar      1 OCT1        0.0000
     21 C18        -1.5380    3.6600    0.4250 C.3       1 OCT1        0.0000
     22 O4         -2.7830    3.6460    1.1110 O.3       1 OCT1        0.0000
     23 O5          2.5440   -4.1280    0.4970 O.3       1 OCT1        0.0000
     24 C19         0.8190   -3.8400    2.8300 C.3       1 OCT1        0.0000
     25 C20        -0.4320   -3.4440    2.0490 C.ar      1 OCT1        0.0000
     26 O6          0.2820   -4.7530   -0.0200 O.3       1 OCT1        0.0000
     27 C21        -0.6540   -3.9910    0.7700 C.ar      1 OCT1        0.0000
     28 C22        -3.9750    1.6730    0.8700 C.ar      1 OCT1        0.0000
     29 C23        -4.2640    0.3670    1.1370 C.ar      1 OCT1        0.0000
     30 C24        -1.8020   -3.7270    0.0330 C.ar      1 OCT1        0.0000
     31 C25        -2.7750   -2.9180    0.5540 C.ar      1 OCT1        0.0000
     32 O7         -4.8390   -0.4100    0.1310 O.3       1 OCT1        0.0000
     33 O8         -3.8440   -2.5740   -0.2240 O.3       1 OCT1        0.0000
     34 C26        -3.9300   -1.1640   -0.7330 C.3       1 OCT1        0.0000
     35 C27        -1.4680   -2.7260    2.6070 C.ar      1 OCT1        0.0000
     36 C28        -2.6720   -2.4640    1.9030 C.ar      1 OCT1        0.0000
     37 C29        -2.9270    0.5100    3.1980 C.ar      1 OCT1        0.0000
     38 C30        -3.9200   -1.7400    2.6170 C.3       1 OCT1        0.0000
     39 C31        -3.7670   -0.2670    2.3280 C.ar      1 OCT1        0.0000
     40 C32         1.4480   -3.9480   -0.4130 C.3       1 OCT1        0.0000
     41 C33        -1.7230    2.5680    5.1830 C.3       1 OCT1        0.0000
     42 C34        -3.1160    2.7320    5.7950 C.3       1 OCT1        0.0000
     43 C35        -3.0940    2.4680    7.3220 C.2       1 OCT1        0.0000
     44 O9         -2.1470    1.9470    7.8190 O.co2     1 OCT1        0.0000
     45 C36         2.9710    0.3330    5.2440 C.3       1 OCT1        0.0000
     46 C37         3.4740    1.5040    6.0680 C.3       1 OCT1        0.0000
     47 C38         4.9650    1.5110    5.9710 C.2       1 OCT1        0.0000
     48 O10         5.6550    0.8410    6.7490 O.co2     1 OCT1        0.0000
     49 C39         0.6190   -4.2620    4.3570 C.3       1 OCT1        0.0000
     50 C40        -0.4420   -5.3440    4.4880 C.3       1 OCT1        0.0000
     51 C41         0.2540   -6.6130    4.0330 C.2       1 OCT1        0.0000
     52 O11         1.0480   -7.1760    4.7900 O.co2     1 OCT1        0.0000
     53 C42        -3.9730   -2.2770    4.1800 C.3       1 OCT1        0.0000
     54 C43        -5.1780   -1.5800    4.8560 C.3       1 OCT1        0.0000
     55 C44        -5.1500   -1.9220    6.3420 C.2       1 OCT1        0.0000
     56 O12        -4.2720   -1.6220    7.0980 O.co2     1 OCT1        0.0000
     57 C45         4.8530    1.8910   -0.4090 C.ar      1 OCT1        0.0000
     58 C46         6.4190    2.7220   -2.5260 C.ar      1 OCT1        0.0000
     59 C47         4.8060    3.1880   -0.8380 C.ar      1 OCT1        0.0000
     60 C48         5.7010    1.0210   -1.0690 C.ar      1 OCT1        0.0000
     61 C49         6.5160    1.4180   -2.1280 C.ar      1 OCT1        0.0000
     62 C50         5.5390    3.5760   -1.8830 C.ar      1 OCT1        0.0000
     63 C51         1.9240   -4.1690   -1.8430 C.ar      1 OCT1        0.0000
     64 C52         2.5740   -4.1720   -4.5420 C.ar      1 OCT1        0.0000
     65 C53         1.0450   -4.6830   -2.7060 C.ar      1 OCT1        0.0000
     66 C54         3.1640   -3.6710   -2.3470 C.ar      1 OCT1        0.0000
     67 C55         3.5120   -3.7000   -3.6730 C.ar      1 OCT1        0.0000
     68 C56         1.3590   -4.6800   -4.0870 C.ar      1 OCT1        0.0000
     69 C57        -4.3640   -1.2630   -2.1710 C.ar      1 OCT1        0.0000
     70 C58        -5.1030   -1.2900   -4.8080 C.ar      1 OCT1        0.0000
     71 C59        -5.1920   -0.2470   -2.6580 C.ar      1 OCT1        0.0000
     72 C60        -3.9340   -2.3460   -3.0260 C.ar      1 OCT1        0.0000
     73 C61        -4.2790   -2.3050   -4.3980 C.ar      1 OCT1        0.0000
     74 C62        -5.5090   -0.2170   -4.0010 C.ar      1 OCT1        0.0000
     75 C63        -1.5850    4.4050   -0.9270 C.ar      1 OCT1        0.0000
     76 C64        -1.5140    5.2850   -3.5240 C.ar      1 OCT1        0.0000
     77 C65        -2.7380    4.3570   -1.7190 C.ar      1 OCT1        0.0000
     78 C66        -0.3570    4.8830   -1.4230 C.ar      1 OCT1        0.0000
     79 C67        -0.3650    5.2850   -2.7420 C.ar      1 OCT1        0.0000
     80 C68        -2.6800    4.7550   -2.9980 C.ar      1 OCT1        0.0000
     81 O13         4.6560   -3.1320   -4.2310 O.3       1 OCT1        0.0000
     82 O14        -3.9210   -3.3160   -5.2690 O.3       1 OCT1        0.0000
     83 O15        -6.1530    0.7740   -4.5970 O.3       1 OCT1        0.0000
     84 O16         7.3710    0.5580   -2.7490 O.3       1 OCT1        0.0000
     85 O17         5.5640    4.8870   -2.3690 O.3       1 OCT1        0.0000
     86 O18        -3.8000    4.8130   -3.8840 O.3       1 OCT1        0.0000
     87 O19         0.8470    5.5530   -3.3740 O.3       1 OCT1        0.0000
     88 C69        -3.1250   -4.3820   -4.8430 C.ar      1 OCT1        0.0000
     89 C70        -1.3880   -6.3310   -3.9960 C.ar      1 OCT1        0.0000
     90 C71        -1.7660   -4.2420   -5.0990 C.ar      1 OCT1        0.0000
     91 C72        -3.6200   -5.4880   -4.0900 C.ar      1 OCT1        0.0000
     92 C73        -2.7470   -6.4710   -3.6320 C.ar      1 OCT1        0.0000
     93 C74        -0.8840   -5.2010   -4.6980 C.ar      1 OCT1        0.0000
     94 O20         0.4360   -5.0770   -4.9660 O.3       1 OCT1        0.0000
     95 C75         7.0140   -0.7940   -2.8120 C.ar      1 OCT1        0.0000
     96 C76         6.6030   -3.4800   -2.7760 C.ar      1 OCT1        0.0000
     97 C77         7.8680   -1.6190   -2.0560 C.ar      1 OCT1        0.0000
     98 C78         5.8570   -1.2990   -3.4370 C.ar      1 OCT1        0.0000
     99 C79         5.6910   -2.6750   -3.4480 C.ar      1 OCT1        0.0000
    100 C80         7.6440   -2.9510   -2.0130 C.ar      1 OCT1        0.0000
    101 C81        -6.1080    2.0390   -4.1700 C.ar      1 OCT1        0.0000
    102 C82        -6.0420    4.5660   -3.0460 C.ar      1 OCT1        0.0000
    103 C83        -7.2560    2.5070   -3.5050 C.ar      1 OCT1        0.0000
    104 C84        -4.9680    2.7640   -4.2470 C.ar      1 OCT1        0.0000
    105 C85        -4.9020    4.0350   -3.6650 C.ar      1 OCT1        0.0000
    106 C86        -7.2160    3.7920   -2.9240 C.ar      1 OCT1        0.0000
    107 C87        -8.3420    4.2640   -2.0140 C.2       1 OCT1        0.0000
    108 O21        -9.2730    3.5770   -1.6770 O.co2     1 OCT1        0.0000
    109 C88         3.5430    9.3010   -1.4370 C.2       1 OCT1        0.0000
    110 O22         4.6040    9.6750   -1.0440 O.co2     1 OCT1        0.0000
    111 C89         8.5220   -3.8700   -1.0650 C.2       1 OCT1        0.0000
    112 O23         8.5050   -5.0240   -1.2770 O.co2     1 OCT1        0.0000
    113 O24        -4.0100    2.7470    7.9930 O.co2     1 OCT1        0.0000
    114 O25        -6.1860   -2.4440    6.7280 O.co2     1 OCT1        0.0000
    115 O26         0.0950   -6.9830    2.9000 O.co2     1 OCT1        0.0000
    116 C90        -3.1550   -7.5970   -2.7690 C.2       1 OCT1        0.0000
    117 O27        -2.3410   -8.3000   -2.1910 O.co2     1 OCT1        0.0000
    118 O28         2.5090    9.9980   -1.3550 O.co2     1 OCT1        0.0000
    119 O29        -8.3240    5.4290   -1.6400 O.co2     1 OCT1        0.0000
    120 O30        -4.3750   -7.7630   -2.5820 O.co2     1 OCT1        0.0000
    121 O31         9.0540   -3.4610   -0.0610 O.co2     1 OCT1        0.0000
    122 O32         5.5220    2.2790    5.1950 O.co2     1 OCT1        0.0000
    123 C91         4.4110    5.6700   -2.4190 C.ar      1 OCT1        0.0000
    124 C92         2.1750    7.2800   -2.2470 C.ar      1 OCT1        0.0000
    125 C93         3.1540    5.1300   -2.8380 C.ar      1 OCT1        0.0000
    126 C94         4.5390    7.0130   -1.9880 C.ar      1 OCT1        0.0000
    127 C95         3.3890    7.8860   -1.8580 C.ar      1 OCT1        0.0000
    128 C96         2.0370    5.9900   -2.7670 C.ar      1 OCT1        0.0000
    129 H1          1.3140   -1.5380    4.0470 H         1 OCT1        0.0000
    130 H2          4.3950   -2.2610    0.2290 H         1 OCT1        0.0000
    131 H3          3.9410    1.0910    3.5770 H         1 OCT1        0.0000
    132 H4          2.9520    1.0690    0.2500 H         1 OCT1        0.0000
    133 H5          0.4670    1.0980    4.5330 H         1 OCT1        0.0000
    134 H6          1.8430    4.0220    0.7740 H         1 OCT1        0.0000
    135 H7         -1.9970    3.7840    3.5520 H         1 OCT1        0.0000
    136 H8         -1.2860    2.6080    0.2230 H         1 OCT1        0.0000
    137 H9          1.1220   -4.7900    2.3850 H         1 OCT1        0.0000
    138 H10        -4.3700    2.1250   -0.0360 H         1 OCT1        0.0000
    139 H11        -1.8910   -4.1970   -0.9440 H         1 OCT1        0.0000
    140 H12        -2.8730   -0.8670   -0.6830 H         1 OCT1        0.0000
    141 H13        -1.5000   -2.4000    3.6440 H         1 OCT1        0.0000
    142 H14        -2.5320    0.0400    4.0950 H         1 OCT1        0.0000
    143 H15        -4.8830   -1.9290    2.1380 H         1 OCT1        0.0000
    144 H16         1.0410   -2.9290   -0.3430 H         1 OCT1        0.0000
    145 H17        -1.2640    1.6140    5.4480 H         1 OCT1        0.0000
    146 H18        -1.0850    3.3470    5.6060 H         1 OCT1        0.0000
    147 H19        -3.4140    3.7700    5.6300 H         1 OCT1        0.0000
    148 H20        -3.7740    1.9840    5.3470 H         1 OCT1        0.0000
    149 H21         3.4060   -0.6560    5.4020 H         1 OCT1        0.0000
    150 H22         1.9960    0.0970    5.6760 H         1 OCT1        0.0000
    151 H23         3.0110    2.4500    5.7790 H         1 OCT1        0.0000
    152 H24         3.2700    1.1450    7.0800 H         1 OCT1        0.0000
    153 H25         1.5540   -4.5780    4.8230 H         1 OCT1        0.0000
    154 H26         0.2700   -3.3680    4.8770 H         1 OCT1        0.0000
    155 H27        -0.6790   -5.3400    5.5540 H         1 OCT1        0.0000
    156 H28        -1.3680   -5.2640    3.9150 H         1 OCT1        0.0000
    157 H29        -4.1990   -3.3400    4.2770 H         1 OCT1        0.0000
    158 H30        -3.1350   -2.0140    4.8300 H         1 OCT1        0.0000
    159 H31        -5.0920   -0.4960    4.7620 H         1 OCT1        0.0000
    160 H32        -6.1050   -1.8690    4.3570 H         1 OCT1        0.0000
    161 H33         6.9260    3.1600   -3.3810 H         1 OCT1        0.0000
    162 H34         4.0220    3.8410   -0.4650 H         1 OCT1        0.0000
    163 H35         5.8180    0.0340   -0.6280 H         1 OCT1        0.0000
    164 H36         2.7470   -4.1360   -5.6140 H         1 OCT1        0.0000
    165 H37         0.0270   -4.9510   -2.4310 H         1 OCT1        0.0000
    166 H38         3.8240   -3.2270   -1.6060 H         1 OCT1        0.0000
    167 H39        -5.3290   -1.2620   -5.8720 H         1 OCT1        0.0000
    168 H40        -5.4360    0.6030   -2.0260 H         1 OCT1        0.0000
    169 H41        -3.2850   -3.1120   -2.6070 H         1 OCT1        0.0000
    170 H42        -1.5800    5.8250   -4.4650 H         1 OCT1        0.0000
    171 H43        -3.6250    3.8900   -1.2980 H         1 OCT1        0.0000
    172 H44         0.5490    4.8370   -0.8240 H         1 OCT1        0.0000
    173 H45        -0.6830   -7.0780   -3.6390 H         1 OCT1        0.0000
    174 H46        -1.4480   -3.3280   -5.5950 H         1 OCT1        0.0000
    175 H47        -4.6980   -5.5820   -3.9820 H         1 OCT1        0.0000
    176 H48         6.2860   -4.5190   -2.7310 H         1 OCT1        0.0000
    177 H49         8.6710   -1.1640   -1.4820 H         1 OCT1        0.0000
    178 H50         5.0750   -0.6430   -3.8120 H         1 OCT1        0.0000
    179 H51        -6.1300    5.5770   -2.6560 H         1 OCT1        0.0000
    180 H52        -8.1780    1.9330   -3.5290 H         1 OCT1        0.0000
    181 H53        -4.1080    2.2910   -4.7150 H         1 OCT1        0.0000
    182 H54         1.2730    7.8750   -2.3700 H         1 OCT1        0.0000
    183 H55         3.0630    4.0900   -3.1410 H         1 OCT1        0.0000
    184 H56         5.4990    7.4650   -1.7500 H         1 OCT1        0.0000
@<TRIPOS>BOND
     1    1    3 ar
     2    1    4 ar
     3    4    5 ar
     4    2    5 ar
     5    3    6 ar
     6    2    6 ar
     7    2    7 1
     8    6    8 1
     9    7    9 1
    10    9   10 1
    11   10   11 1
    12   11   12 ar
    13    8   12 1
    14   12   13 ar
    15   11   14 ar
    16   13   15 ar
    17   15   16 ar
    18   14   16 ar
    19   16   17 1
    20   15   18 1
    21   18   19 1
    22   19   20 ar
    23   17   21 1
    24   21   22 1
    25   20   22 1
    26    4   23 1
    27    1   24 1
    28   24   25 1
    29   26   27 1
    30   25   27 ar
    31   20   28 ar
    32   28   29 ar
    33   27   30 ar
    34   30   31 ar
    35   29   32 1
    36   31   33 1
    37   32   34 1
    38   33   34 1
    39   25   35 ar
    40   35   36 ar
    41   31   36 ar
    42   19   37 ar
    43   36   38 1
    44   38   39 1
    45   37   39 ar
    46   29   39 ar
    47   26   40 1
    48   23   40 1
    49   18   41 1
    50   41   42 1
    51   42   43 1
    52   43   44 1
    53    8   45 1
    54   45   46 1
    55   46   47 1
    56   47   48 1
    57   24   49 1
    58   49   50 1
    59   50   51 1
    60   51   52 1
    61   38   53 1
    62   53   54 1
    63   54   55 1
    64   55   56 2
    65    9   57 1
    66   57   59 ar
    67   57   60 ar
    68   60   61 ar
    69   58   61 ar
    70   59   62 ar
    71   58   62 ar
    72   40   63 1
    73   63   65 ar
    74   63   66 ar
    75   64   67 ar
    76   66   67 ar
    77   65   68 ar
    78   64   68 ar
    79   34   69 1
    80   69   71 ar
    81   69   72 ar
    82   70   73 ar
    83   72   73 ar
    84   70   74 ar
    85   71   74 ar
    86   21   75 1
    87   75   77 ar
    88   75   78 ar
    89   78   79 ar
    90   76   79 ar
    91   77   80 ar
    92   76   80 ar
    93   67   81 1
    94   73   82 1
    95   74   83 1
    96   61   84 1
    97   62   85 1
    98   80   86 1
    99   79   87 1
   100   82   88 1
   101   88   90 ar
   102   88   91 ar
   103   91   92 ar
   104   89   92 ar
   105   89   93 ar
   106   90   93 ar
   107   93   94 1
   108   68   94 1
   109   84   95 1
   110   95   97 ar
   111   95   98 ar
   112   98   99 ar
   113   96   99 ar
   114   81   99 1
   115   97  100 ar
   116   96  100 ar
   117   83  101 1
   118  101  103 ar
   119  101  104 ar
   120  104  105 ar
   121  102  105 ar
   122   86  105 1
   123  103  106 ar
   124  102  106 ar
   125  106  107 1
   126  107  108 2
   127  109  110 2
   128  100  111 1
   129  111  112 2
   130   43  113 2
   131   55  114 1
   132   51  115 2
   133   92  116 1
   134  116  117 2
   135  109  118 1
   136  107  119 1
   137  116  120 1
   138  111  121 1
   139   47  122 2
   140   85  123 1
   141  123  125 ar
   142  123  126 ar
   143  124  127 ar
   144  109  127 1
   145  126  127 ar
   146  125  128 ar
   147  124  128 ar
   148   87  128 1
   149    3  129 1
   150    5  130 1
   151    8  131 1
   152    9  132 1
   153   13  133 1
   154   14  134 1
   155   18  135 1
   156   21  136 1
   157   24  137 1
   158   28  138 1
   159   30  139 1
   160   34  140 1
   161   35  141 1
   162   37  142 1
   163   38  143 1
   164   40  144 1
   165   41  145 1
   166   41  146 1
   167   42  147 1
   168   42  148 1
   169   45  149 1
   170   45  150 1
   171   46  151 1
   172   46  152 1
   173   49  153 1
   174   49  154 1
   175   50  155 1
   176   50  156 1
   177   53  157 1
   178   53  158 1
   179   54  159 1
   180   54  160 1
   181   58  161 1
   182   59  162 1
   183   60  163 1
   184   64  164 1
   185   65  165 1
   186   66  166 1
   187   70  167 1
   188   71  168 1
   189   72  169 1
   190   76  170 1
   191   77  171 1
   192   78  172 1
   193   89  173 1
   194   90  174 1
   195   91  175 1
   196   96  176 1
   197   97  177 1
   198   98  178 1
   199  102  179 1
   200  103  180 1
   201  104  181 1
   202  124  182 1
   203  125  183 1
   204  126  184 1
