VeraChem MOL file


 12 12  0  0  0  0  0  0  0  0999 V2000     
    0.6950    1.2030   -0.0010 C   0  0  0  0  0  0  0  0  0  0  0  0
   -0.6950    1.2030   -0.0020 C   0  0  0  0  0  0  0  0  0  0  0  0
   -1.3890    0.0000   -0.0060 C   0  0  0  0  0  0  0  0  0  0  0  0
   -0.6950   -1.2030   -0.0070 C   0  0  0  0  0  0  0  0  0  0  0  0
    0.6950   -1.2030   -0.0060 C   0  0  0  0  0  0  0  0  0  0  0  0
    1.3890    0.0000   -0.0020 C   0  0  0  0  0  0  0  0  0  0  0  0
    1.2350    2.1380    0.0020 H   0  0  0  0  0  0  0  0  0  0  0  0
   -1.2350    2.1380   -0.0010 H   0  0  0  0  0  0  0  0  0  0  0  0
   -2.4690    0.0000   -0.0070 H   0  0  0  0  0  0  0  0  0  0  0  0
   -1.2350   -2.1380   -0.0100 H   0  0  0  0  0  0  0  0  0  0  0  0
    1.2350   -2.1380   -0.0070 H   0  0  0  0  0  0  0  0  0  0  0  0
    2.4690    0.0000   -0.0010 H   0  0  0  0  0  0  0  0  0  0  0  0
  1  2  1  0  0  0  0
  2  3  2  0  0  0  0
  3  4  1  0  0  0  0
  4  5  2  0  0  0  0
  5  6  1  0  0  0  0
  6  1  2  0  0  0  0
  1  7  1  0  0  0  0
  2  8  1  0  0  0  0
  3  9  1  0  0  0  0
  4 10  1  0  0  0  0
  5 11  1  0  0  0  0
  6 12  1  0  0  0  0
M  END
