VeraChem MOL file


 30 31  0  0  0  0  0  0  0  0999 V2000     
    1.2430    1.0360    0.6960 C   0  0  0  0  0  0  0  0  0  0  0  0
    2.5210    1.5130    0.4410 C   0  0  0  0  0  0  0  0  0  0  0  0
    3.0450    1.4610   -0.8480 C   0  0  0  0  0  0  0  0  0  0  0  0
    2.3170    0.9390   -1.9050 C   0  0  0  0  0  0  0  0  0  0  0  0
    1.0430    0.4670   -1.6380 C   0  0  0  0  0  0  0  0  0  0  0  0
    0.5040    0.5110   -0.3550 C   0  0  0  0  0  0  0  0  0  0  0  0
    0.8300    1.0730    1.6950 H   0  0  0  0  0  0  0  0  0  0  0  0
    3.1130    1.9260    1.2470 H   0  0  0  0  0  0  0  0  0  0  0  0
    4.0420    1.8470   -1.0120 H   0  0  0  0  0  0  0  0  0  0  0  0
    0.4380    0.0450   -2.4300 H   0  0  0  0  0  0  0  0  0  0  0  0
   -0.4940    0.1340   -0.1770 H   0  0  0  0  0  0  0  0  0  0  0  0
    2.8760    0.8920   -3.2960 C   0  0  0  0  0  0  0  0  0  0  0  0
    2.0780    1.2220   -4.3770 C   0  0  0  0  0  0  0  0  0  0  0  0
    2.5640    1.1920   -5.6810 C   0  0  0  0  0  0  0  0  0  0  0  0
    3.8810    0.8250   -5.9460 C   0  0  0  0  0  0  0  0  0  0  0  0
    4.6890    0.4900   -4.8640 C   0  0  0  0  0  0  0  0  0  0  0  0
    4.1850    0.5250   -3.5680 C   0  0  0  0  0  0  0  0  0  0  0  0
    1.0490    1.5210   -4.2280 H   0  0  0  0  0  0  0  0  0  0  0  0
    1.9010    1.4590   -6.4940 H   0  0  0  0  0  0  0  0  0  0  0  0
    5.7180    0.1970   -5.0310 H   0  0  0  0  0  0  0  0  0  0  0  0
    5.0670    0.1610   -2.6270 F   0  0  0  0  0  0  0  0  0  0  0  0
    4.4230    0.7960   -7.3570 C   0  0  0  0  0  0  0  0  0  0  0  0
    4.3530    2.1840   -8.0120 C   0  0  0  0  0  0  0  0  0  0  0  0
    3.6590   -0.2340   -8.2090 C   0  0  0  0  0  0  0  0  0  0  0  0
    5.4640    0.4740   -7.3350 H   0  0  0  0  0  0  0  0  0  0  0  0
    3.9120   -1.5060   -7.8250 O   0  5  0  0  0  0  0  0  0  0  0  0
    2.9340    0.0350   -9.1180 O   0  0  0  0  0  0  0  0  0  0  0  0
    4.8980    2.9200   -7.4200 H   0  0  0  0  0  0  0  0  0  0  0  0
    3.3250    2.5340   -8.1150 H   0  0  0  0  0  0  0  0  0  0  0  0
    4.7960    2.1680   -9.0080 H   0  0  0  0  0  0  0  0  0  0  0  0
  1  2  1  0  0  0  0
  1  6  2  0  0  0  0
  1  7  1  0  0  0  0
  2  3  2  0  0  0  0
  2  8  1  0  0  0  0
  3  4  1  0  0  0  0
  3  9  1  0  0  0  0
  4  5  2  0  0  0  0
  4 12  1  0  0  0  0
  5  6  1  0  0  0  0
  5 10  1  0  0  0  0
  6 11  1  0  0  0  0
 12 13  2  0  0  0  0
 12 17  1  0  0  0  0
 13 14  1  0  0  0  0
 13 18  1  0  0  0  0
 14 15  2  0  0  0  0
 14 19  1  0  0  0  0
 15 16  1  0  0  0  0
 15 22  1  0  0  0  0
 16 17  2  0  0  0  0
 16 20  1  0  0  0  0
 17 21  1  0  0  0  0
 22 23  1  0  0  0  0
 22 24  1  0  0  0  0
 22 25  1  0  0  0  0
 23 28  1  0  0  0  0
 23 29  1  0  0  0  0
 23 30  1  0  0  0  0
 24 26  1  0  0  0  0
 24 27  2  0  0  0  0
M  END
