VeraChem MOL file


 33 34  0  0  0  0  0  0  0  0999 V2000     
    1.5680    0.2650   -0.3510 C   0  0  0  0  0  0  0  0  0  0  0  0
    2.2140    1.4330    0.0920 C   0  0  0  0  0  0  0  0  0  0  0  0
    1.5230    2.6590    0.0900 C   0  0  0  0  0  0  0  0  0  0  0  0
    0.1900    2.7190   -0.3540 C   0  0  0  0  0  0  0  0  0  0  0  0
   -0.4550    1.5510   -0.7990 C   0  0  0  0  0  0  0  0  0  0  0  0
    0.2380    0.3380   -0.7920 C   0  0  0  0  0  0  0  0  0  0  0  0
    3.2370    1.4140    0.4370 H   0  0  0  0  0  0  0  0  0  0  0  0
   -1.4790    1.5830   -1.1440 H   0  0  0  0  0  0  0  0  0  0  0  0
   -0.2570   -0.5610   -1.1330 H   0  0  0  0  0  0  0  0  0  0  0  0
    2.1690    3.8300    0.5280 C   0  0  0  0  0  0  0  0  0  0  0  0
    1.4770    5.0440    0.5180 C   0  0  0  0  0  0  0  0  0  0  0  0
    0.1440    5.1120    0.0760 C   0  0  0  0  0  0  0  0  0  0  0  0
   -0.4970    3.9460   -0.3600 C   0  0  0  0  0  0  0  0  0  0  0  0
    3.1940    3.8010    0.8700 H   0  0  0  0  0  0  0  0  0  0  0  0
    1.9820    5.9420    0.8470 H   0  0  0  0  0  0  0  0  0  0  0  0
   -1.5190    3.9960   -0.7090 H   0  0  0  0  0  0  0  0  0  0  0  0
    2.1570   -0.9990   -0.3910 O   0  0  0  0  0  0  0  0  0  0  0  0
    3.4990   -1.0720    0.0550 C   0  0  0  0  0  0  0  0  0  0  0  0
    3.8510   -2.1010   -0.0210 H   0  0  0  0  0  0  0  0  0  0  0  0
    3.5820   -0.7700    1.1000 H   0  0  0  0  0  0  0  0  0  0  0  0
    4.1520   -0.4540   -0.5630 H   0  0  0  0  0  0  0  0  0  0  0  0
   -0.5760    6.4330    0.0300 C   0  0  0  0  0  0  0  0  0  0  0  0
   -0.6410    7.0010   -1.3970 C   0  0  0  0  0  0  0  0  0  0  0  0
   -0.0870    7.1430    0.6980 H   0  0  0  0  0  0  0  0  0  0  0  0
   -1.5860    6.2950    0.4150 H   0  0  0  0  0  0  0  0  0  0  0  0
    0.7610    7.2800   -1.9560 C   0  0  0  0  0  0  0  0  0  0  0  0
   -1.1980    7.9370   -1.3990 H   0  0  0  0  0  0  0  0  0  0  0  0
   -1.1640    6.3150   -2.0640 H   0  0  0  0  0  0  0  0  0  0  0  0
    1.3180    6.3040   -2.9950 C   0  0  0  0  0  0  0  0  0  0  0  0
    1.3520    8.2770   -1.6560 O   0  0  0  0  0  0  0  0  0  0  0  0
    2.2900    6.6480   -3.3450 H   0  0  0  0  0  0  0  0  0  0  0  0
    0.6370    6.2380   -3.8430 H   0  0  0  0  0  0  0  0  0  0  0  0
    1.4290    5.3140   -2.5550 H   0  0  0  0  0  0  0  0  0  0  0  0
  1  2  2  0  0  0  0
  1  6  1  0  0  0  0
  1 17  1  0  0  0  0
  2  3  1  0  0  0  0
  2  7  1  0  0  0  0
  3  4  1  0  0  0  0
  3 10  2  0  0  0  0
  4  5  1  0  0  0  0
  4 13  2  0  0  0  0
  5  6  2  0  0  0  0
  5  8  1  0  0  0  0
  6  9  1  0  0  0  0
 10 11  1  0  0  0  0
 10 14  1  0  0  0  0
 11 12  2  0  0  0  0
 11 15  1  0  0  0  0
 12 13  1  0  0  0  0
 12 22  1  0  0  0  0
 13 16  1  0  0  0  0
 17 18  1  0  0  0  0
 18 19  1  0  0  0  0
 18 20  1  0  0  0  0
 18 21  1  0  0  0  0
 22 23  1  0  0  0  0
 22 24  1  0  0  0  0
 22 25  1  0  0  0  0
 23 26  1  0  0  0  0
 23 27  1  0  0  0  0
 23 28  1  0  0  0  0
 26 29  1  0  0  0  0
 26 30  2  0  0  0  0
 29 31  1  0  0  0  0
 29 32  1  0  0  0  0
 29 33  1  0  0  0  0
M  END
