VeraChem MOL file


 30 31  0  0  0  0  0  0  0  0999 V2000     
    1.4200    0.0010    0.0030 C   0  0  0  0  0  0  0  0  0  0  0  0
    2.1030    1.2220    0.0120 C   0  0  0  0  0  0  0  0  0  0  0  0
    1.3880    2.4340    0.0120 C   0  0  0  0  0  0  0  0  0  0  0  0
   -0.0180    2.4220    0.0030 C   0  0  0  0  0  0  0  0  0  0  0  0
   -0.7090    1.1970   -0.0060 C   0  0  0  0  0  0  0  0  0  0  0  0
    0.0090   -0.0030   -0.0060 C   0  0  0  0  0  0  0  0  0  0  0  0
    3.1830    1.2230    0.0190 H   0  0  0  0  0  0  0  0  0  0  0  0
   -1.7890    1.1740   -0.0130 H   0  0  0  0  0  0  0  0  0  0  0  0
   -0.5530   -0.9250   -0.0140 H   0  0  0  0  0  0  0  0  0  0  0  0
    2.0780    3.6590    0.0220 C   0  0  0  0  0  0  0  0  0  0  0  0
    1.3580    4.8570    0.0220 C   0  0  0  0  0  0  0  0  0  0  0  0
   -0.0490    4.8590    0.0120 C   0  0  0  0  0  0  0  0  0  0  0  0
   -0.7340    3.6330    0.0030 C   0  0  0  0  0  0  0  0  0  0  0  0
    3.1590    3.6840    0.0290 H   0  0  0  0  0  0  0  0  0  0  0  0
    1.9020    5.7920    0.0280 H   0  0  0  0  0  0  0  0  0  0  0  0
   -1.8150    3.6180   -0.0050 H   0  0  0  0  0  0  0  0  0  0  0  0
    2.2150   -1.1450    0.0030 O   0  0  0  0  0  0  0  0  0  0  0  0
    1.5220   -2.3790   -0.0100 C   0  0  0  0  0  0  0  0  0  0  0  0
    2.2400   -3.1990   -0.0090 H   0  0  0  0  0  0  0  0  0  0  0  0
    0.9100   -2.4770   -0.9070 H   0  0  0  0  0  0  0  0  0  0  0  0
    0.8970   -2.4880    0.8780 H   0  0  0  0  0  0  0  0  0  0  0  0
   -0.8080    6.1670    0.0180 C   0  0  0  0  0  0  0  0  0  0  0  0
   -1.6990    6.2930    1.2630 C   0  0  0  0  0  0  0  0  0  0  0  0
   -1.1080    6.2010    2.1740 H   0  0  0  0  0  0  0  0  0  0  0  0
   -2.4740    5.5260    1.2880 H   0  0  0  0  0  0  0  0  0  0  0  0
   -2.1970    7.2630    1.2900 H   0  0  0  0  0  0  0  0  0  0  0  0
   -1.6540    6.3080   -1.2600 C   0  0  0  0  0  0  0  0  0  0  0  0
   -0.0980    6.9940    0.0150 H   0  0  0  0  0  0  0  0  0  0  0  0
   -0.8900    6.4390   -2.3680 O   0  5  0  0  0  0  0  0  0  0  0  0
   -2.8470    6.3140   -1.2920 O   0  0  0  0  0  0  0  0  0  0  0  0
  1  2  1  0  0  0  0
  1  6  2  0  0  0  0
  1 17  1  0  0  0  0
  2  3  2  0  0  0  0
  2  7  1  0  0  0  0
  3  4  1  0  0  0  0
  3 10  1  0  0  0  0
  4  5  2  0  0  0  0
  4 13  1  0  0  0  0
  5  6  1  0  0  0  0
  5  8  1  0  0  0  0
  6  9  1  0  0  0  0
 10 11  2  0  0  0  0
 10 14  1  0  0  0  0
 11 12  1  0  0  0  0
 11 15  1  0  0  0  0
 12 13  2  0  0  0  0
 12 22  1  0  0  0  0
 13 16  1  0  0  0  0
 17 18  1  0  0  0  0
 18 19  1  0  0  0  0
 18 20  1  0  0  0  0
 18 21  1  0  0  0  0
 22 23  1  0  0  0  0
 22 27  1  0  0  0  0
 22 28  1  0  0  0  0
 23 24  1  0  0  0  0
 23 25  1  0  0  0  0
 23 26  1  0  0  0  0
 27 29  2  0  0  0  0
 27 30  1  0  0  0  0
M  END
