VeraChem MOL file


 14 14  0  0  0  0  0  0  0  0999 V2000     
   -4.0310    2.3700   -2.2120 C   0  0  0  0  0  0  0  0  0  0  0  0
   -2.9670    1.4880   -2.0710 C   0  0  0  0  0  0  0  0  0  0  0  0
   -2.6560    0.6080   -3.1040 C   0  0  0  0  0  0  0  0  0  0  0  0
   -3.4100    0.6260   -4.2710 C   0  0  0  0  0  0  0  0  0  0  0  0
   -4.4800    1.5020   -4.4110 C   0  0  0  0  0  0  0  0  0  0  0  0
   -4.7880    2.3810   -3.3760 C   0  0  0  0  0  0  0  0  0  0  0  0
   -4.2670    3.0570   -1.4120 H   0  0  0  0  0  0  0  0  0  0  0  0
   -2.3970    1.5260   -1.1520 H   0  0  0  0  0  0  0  0  0  0  0  0
   -3.1660   -0.0510   -5.0760 H   0  0  0  0  0  0  0  0  0  0  0  0
   -5.5970    3.0960   -3.4450 H   0  0  0  0  0  0  0  0  0  0  0  0
   -5.2040    1.4880   -5.5890 O   0  0  0  0  0  0  0  0  0  0  0  0
   -1.6000   -0.2800   -3.0060 O   0  0  0  0  0  0  0  0  0  0  0  0
   -6.0830    1.8380   -5.4520 H   0  0  0  0  0  0  0  0  0  0  0  0
   -1.3940   -0.4620   -2.0910 H   0  0  0  0  0  0  0  0  0  0  0  0
  1  2  2  0  0  0  0
  1  6  1  0  0  0  0
  1  7  1  0  0  0  0
  2  3  1  0  0  0  0
  2  8  1  0  0  0  0
  3  4  2  0  0  0  0
  3 12  1  0  0  0  0
  4  5  1  0  0  0  0
  4  9  1  0  0  0  0
  5  6  2  0  0  0  0
  5 11  1  0  0  0  0
  6 10  1  0  0  0  0
 11 13  1  0  0  0  0
 12 14  1  0  0  0  0
M  END
