Octa acid Guest5
  DSViewer          3D                             0

 30 30  0  0  0  0  0  0  0  0999 V2000
    4.1160    1.7670   -2.7600 C   0  0  0  0  0  0  0  0  0  1
    4.2310    0.8000   -1.7470 C   0  0  0  0  0  0  0  0  0  2
    3.7720    1.0820   -0.4490 C   0  0  0  0  0  0  0  0  0  3
    3.1840    2.3310   -0.1620 C   0  0  0  0  0  0  0  0  0  4
    3.0950    3.3080   -1.1750 C   0  0  0  0  0  0  0  0  0  5
    3.5550    3.0220   -2.4720 C   0  0  0  0  0  0  0  0  0  6
    2.6550    2.6270    1.2300 C   0  0  0  0  0  0  0  0  0  7
    1.5100    1.6370    1.5830 C   0  0  0  0  0  0  0  0  0  8
    0.2530    1.7970    0.7450 N   0  3  0  0  0  0  0  0  0  9
   -0.8370    1.0450    1.4130 C   0  0  0  0  0  0  0  0  0 10
    0.4410    1.2170   -0.6170 C   0  0  0  0  0  0  0  0  0 11
   -0.1660    3.2180    0.6190 C   0  0  0  0  0  0  0  0  0 12
   -0.9910    1.4660    2.4000 H   0  0  0  0  0  0  0  0  0 13
   -0.5410    0.0050    1.4850 H   0  0  0  0  0  0  0  0  0 14
   -1.7370    1.1410    0.8160 H   0  0  0  0  0  0  0  0  0 15
    1.1060    1.8540   -1.1850 H   0  0  0  0  0  0  0  0  0 16
   -0.5250    1.1690   -1.1060 H   0  0  0  0  0  0  0  0  0 17
    0.8660    0.2260   -0.5140 H   0  0  0  0  0  0  0  0  0 18
   -0.2580    3.6380    1.6140 H   0  0  0  0  0  0  0  0  0 19
   -1.1170    3.2490    0.1020 H   0  0  0  0  0  0  0  0  0 20
    0.5870    3.7460    0.0460 H   0  0  0  0  0  0  0  0  0 21
    4.4820    1.5530   -3.7560 H   0  0  0  0  0  0  0  0  0 22
    4.6890   -0.1550   -1.9650 H   0  0  0  0  0  0  0  0  0 23
    3.8890    0.3350    0.3240 H   0  0  0  0  0  0  0  0  0 24
    2.6830    4.2850   -0.9650 H   0  0  0  0  0  0  0  0  0 25
    3.4920    3.7740   -3.2480 H   0  0  0  0  0  0  0  0  0 26
    3.4680    2.4750    1.9410 H   0  0  0  0  0  0  0  0  0 27
    2.3360    3.6650    1.3210 H   0  0  0  0  0  0  0  0  0 28
    1.8950    0.6320    1.4570 H   0  0  0  0  0  0  0  0  0 29
    1.2570    1.8220    2.6200 H   0  0  0  0  0  0  0  0  0 30
  1  2  2  0  0  0
  1  6  1  0  0  0
  1 22  1  0  0  0
  2  3  1  0  0  0
  2 23  1  0  0  0
  3  4  2  0  0  0
  3 24  1  0  0  0
  4  5  1  0  0  0
  4  7  1  0  0  0
  5  6  2  0  0  0
  5 25  1  0  0  0
  6 26  1  0  0  0
  7  8  1  0  0  0
  7 27  1  0  0  0
  7 28  1  0  0  0
  8  9  1  0  0  0
  8 29  1  0  0  0
  8 30  1  0  0  0
  9 10  1  0  0  0
  9 11  1  0  0  0
  9 12  1  0  0  0
 10 13  1  0  0  0
 10 14  1  0  0  0
 10 15  1  0  0  0
 11 16  1  0  0  0
 11 17  1  0  0  0
 11 18  1  0  0  0
 12 19  1  0  0  0
 12 20  1  0  0  0
 12 21  1  0  0  0
M  CHG  1   9   1
M  END
