Octa acid guest1
  DSViewer          3D                             0

 15 14  0  0  0  0  0  0  0  0999 V2000
    0.5840    4.5330   -2.5830 C   0  0  0  0  0  0  0  0  0  1
    0.4120    3.5270   -1.9670 C   0  0  0  0  0  0  0  0  0  2
    0.1990    2.2770   -1.2010 C   0  0  0  0  0  0  0  0  0  3
   -0.9750    2.5620   -0.2400 C   0  0  0  0  0  0  0  0  0  4
   -1.3440    1.2370    0.4640 C   0  0  0  0  0  0  0  0  0  5
   -0.2330    0.6570    1.3260 C   0  0  0  0  0  0  0  0  0  6
    0.5000   -0.2010    0.7900 O   0  5  0  0  0  0  0  0  0  7
   -0.1420    1.0880    2.4930 O   0  5  0  0  0  0  0  0  0  8
    0.7340    5.4080   -3.1170 H   0  0  0  0  0  0  0  0  0  9
   -0.0710    1.4850   -1.8870 H   0  0  0  0  0  0  0  0  0 10
    1.0930    2.0520   -0.6330 H   0  0  0  0  0  0  0  0  0 11
   -0.6760    3.3000    0.5080 H   0  0  0  0  0  0  0  0  0 12
   -1.8410    2.9280   -0.7940 H   0  0  0  0  0  0  0  0  0 13
   -2.1970    1.4090    1.1170 H   0  0  0  0  0  0  0  0  0 14
   -1.6240    0.4870   -0.2730 H   0  0  0  0  0  0  0  0  0 15
  1  2  3  0  0  0
  1  9  1  0  0  0
  2  3  1  0  0  0
  3  4  1  0  0  0
  3 10  1  0  0  0
  3 11  1  0  0  0
  4  5  1  0  0  0
  4 12  1  0  0  0
  4 13  1  0  0  0
  5  6  1  0  0  0
  5 14  1  0  0  0
  5 15  1  0  0  0
  6  7  1  0  0  0
  6  8  2  0  0  0
M  CHG  1   7  -1
M  END
