

ResForm 1
 44 44  0  0  0  0  0  0  0  0999 V2000
    1.8920    3.3780    1.5670 C   0  0  0  0  0  0  0  0  0  0  0
    2.2560    2.9580    3.9190 C   0  0  0  0  0  0  0  0  0  0  0
    0.5310    3.5650    1.8110 C   0  0  0  0  0  0  0  0  0  0  0
    0.8950    3.1450    4.1630 C   0  0  0  0  0  0  0  0  0  0  0
    2.7540    3.0750    2.6210 C   0  0  0  0  0  0  0  0  0  0  0
    0.0330    3.4480    3.1090 C   0  0  0  0  0  0  0  0  0  0  0
    4.1730    2.8800    2.3670 C   0  0  0  0  0  0  0  0  0  0  0
   -5.5260    4.1710    5.9720 C   0  0  0  0  0  0  0  0  0  0  0
    8.7670    1.0530    5.7870 C   0  0  0  0  0  0  0  0  0  0  0
    9.0170    3.0820    4.5260 C   0  0  0  0  0  0  0  0  0  0  0
   -4.0560    3.7830    6.0160 C   0  0  0  0  0  0  0  0  0  0  0
   -3.4160    3.8610    4.6290 C   0  0  0  0  0  0  0  0  0  0  0
   -1.9260    3.5350    4.6520 C   0  0  0  0  0  0  0  0  0  0  0
    6.8490    2.0770    4.7650 C   0  0  0  0  0  0  0  0  0  0  0
    6.2660    2.3810    3.3970 C   0  0  0  0  0  0  0  0  0  0  0
   -1.3230    3.6340    3.3520 N   0  0  0  0  0  0  0  0  0  0  0
    8.3020    1.8200    4.6400 N   0  3  2  0  0  0  0  0  0  0  0
    4.7020    2.9640    1.2510 O   0  0  0  0  0  0  0  0  0  0  0
    4.8550    2.5930    3.5170 O   0  0  0  0  0  0  0  0  0  0  0
    2.2600    3.4640    0.6080 H   0  0  0  0  0  0  0  0  0  0  0
    2.8940    2.7340    4.6980 H   0  0  0  0  0  0  0  0  0  0  0
   -0.1070    3.7890    1.0320 H   0  0  0  0  0  0  0  0  0  0  0
    0.5260    3.0590    5.1230 H   0  0  0  0  0  0  0  0  0  0  0
   -5.9430    4.1060    6.9550 H   0  0  0  0  0  0  0  0  0  0  0
   -6.0580    3.5300    5.3010 H   0  0  0  0  0  0  0  0  0  0  0
   -5.6140    5.1770    5.6190 H   0  0  0  0  0  0  0  0  0  0  0
    9.8170    0.8700    5.6920 H   0  0  0  0  0  0  0  0  0  0  0
    8.2340    0.1270    5.8550 H   0  0  0  0  0  0  0  0  0  0  0
    8.5870    1.6130    6.6810 H   0  0  0  0  0  0  0  0  0  0  0
   10.0660    2.8920    4.4360 H   0  0  0  0  0  0  0  0  0  0  0
    8.8250    3.6960    5.3810 H   0  0  0  0  0  0  0  0  0  0  0
    8.6780    3.6020    3.6540 H   0  0  0  0  0  0  0  0  0  0  0
   -3.9520    2.7940    6.4110 H   0  0  0  0  0  0  0  0  0  0  0
   -3.5500    4.4780    6.6540 H   0  0  0  0  0  0  0  0  0  0  0
   -3.5650    4.8370    4.2170 H   0  0  0  0  0  0  0  0  0  0  0
   -3.8920    3.1240    4.0170 H   0  0  0  0  0  0  0  0  0  0  0
   -1.7780    2.5510    5.0450 H   0  0  0  0  0  0  0  0  0  0  0
   -1.4510    4.2590    5.2810 H   0  0  0  0  0  0  0  0  0  0  0
    6.3590    1.2290    5.1960 H   0  0  0  0  0  0  0  0  0  0  0
    6.6960    2.9190    5.4060 H   0  0  0  0  0  0  0  0  0  0  0
    6.4630    1.5740    2.7220 H   0  0  0  0  0  0  0  0  0  0  0
    6.7240    3.2650    3.0070 H   0  0  0  0  0  0  0  0  0  0  0
   -1.9050    3.8470    2.5870 H   0  0  0  0  0  0  0  0  0  0  0
    8.4820    1.2740    3.7970 H   0  0  0  0  0  0  0  0  0  0  0
  1  3  2  0  0  0  0
  1  5  1  0  0  0  0
  1 20  1  0  0  0  0
  2  4  1  0  0  0  0
  2  5  2  0  0  0  0
  2 21  1  0  0  0  0
  3  6  1  0  0  0  0
  3 22  1  0  0  0  0
  4  6  2  0  0  0  0
  4 23  1  0  0  0  0
  5  7  1  0  0  0  0
  6 16  1  0  0  0  0
  7 18  2  0  0  0  0
  7 19  1  0  0  0  0
  8 11  1  0  0  0  0
  8 24  1  0  0  0  0
  8 25  1  0  0  0  0
  8 26  1  0  0  0  0
  9 17  1  0  0  0  0
  9 27  1  0  0  0  0
  9 28  1  0  0  0  0
  9 29  1  0  0  0  0
 10 17  1  0  0  0  0
 10 30  1  0  0  0  0
 10 31  1  0  0  0  0
 10 32  1  0  0  0  0
 11 12  1  0  0  0  0
 11 33  1  0  0  0  0
 11 34  1  0  0  0  0
 12 13  1  0  0  0  0
 12 35  1  0  0  0  0
 12 36  1  0  0  0  0
 13 16  1  0  0  0  0
 13 37  1  0  0  0  0
 13 38  1  0  0  0  0
 14 15  1  0  0  0  0
 14 17  1  0  0  0  0
 14 39  1  0  0  0  0
 14 40  1  0  0  0  0
 15 19  1  0  0  0  0
 15 41  1  0  0  0  0
 15 42  1  0  0  0  0
 16 43  1  0  0  0  0
 17 44  1  0  0  0  0
M  END
$$$$
