

ResForm 1
 55 56  0  0  0  0  0  0  0  0999 V2000
    0.1300    2.0980   -0.4530 C   0  0  0  0  0  0  0  0  0  0  0
   -0.5470    0.8980   -0.2740 C   0  0  0  0  0  0  0  0  0  0  0
   -0.5810    3.2420   -0.8040 C   0  0  0  0  0  0  0  0  0  0  0
   -1.9320    0.8440   -0.4460 C   0  0  0  0  0  0  0  0  0  0  0
   -4.0900    4.2380   -1.4940 C   0  0  0  0  0  0  0  0  0  0  0
   -1.9750    3.1880   -0.9770 C   0  0  0  0  0  0  0  0  0  0  0
   -2.7150    4.3240   -1.3300 C   0  0  0  0  0  0  0  0  0  0  0
   -2.6680    1.9720   -0.7970 C   0  0  0  0  0  0  0  0  0  0  0
   -4.6800    3.0060   -1.2960 C   0  0  0  0  0  0  0  0  0  0  0
   -2.0990    5.6300   -1.5410 C   0  0  0  0  0  0  0  0  0  0  0
  -10.2680    0.3880   -1.4380 C   0  0  0  0  0  0  0  0  0  0  0
    0.8720   11.2440   -1.3780 C   0  0  0  0  0  0  0  0  0  0  0
    1.6990    9.1360    1.2320 C   0  0  0  0  0  0  0  0  0  0  0
   -8.7630    0.3080   -1.2420 C   0  0  0  0  0  0  0  0  0  0  0
   -8.0950    1.6610   -1.4720 C   0  0  0  0  0  0  0  0  0  0  0
    0.4510    9.8200   -1.2480 C   0  0  0  0  0  0  0  0  0  0  0
    0.4660    9.9710    1.1500 C   0  0  0  0  0  0  0  0  0  0  0
   -2.0360    8.0250   -0.8170 C   0  0  0  0  0  0  0  0  0  0  0
   -0.8190    8.2570    0.0620 C   0  0  0  0  0  0  0  0  0  0  0
   -6.5930    1.5940   -1.2350 C   0  0  0  0  0  0  0  0  0  0  0
   -4.0030    1.8860   -0.9550 N   0  0  0  0  0  0  0  0  0  0  0
   -2.5330    6.6710   -0.7150 N   0  0  0  0  0  0  0  0  0  0  0
   -0.3410    9.6100   -0.0260 N   0  3  2  0  0  0  0  0  0  0  0
   -1.2500    5.7860   -2.4320 O   0  0  0  0  0  0  0  0  0  0  0
   -6.0370    2.8850   -1.4500 O   0  0  0  0  0  0  0  0  0  0  0
    1.1530    2.1410   -0.3260 H   0  0  0  0  0  0  0  0  0  0  0
   -0.0260    0.0450   -0.0140 H   0  0  0  0  0  0  0  0  0  0  0
   -0.0820    4.1350   -0.9380 H   0  0  0  0  0  0  0  0  0  0  0
   -2.4220   -0.0540   -0.3100 H   0  0  0  0  0  0  0  0  0  0  0
   -4.6510    5.0640   -1.7530 H   0  0  0  0  0  0  0  0  0  0  0
  -10.7020   -0.5750   -1.2690 H   0  0  0  0  0  0  0  0  0  0  0
  -10.4950    0.7290   -2.4260 H   0  0  0  0  0  0  0  0  0  0  0
  -10.6770    1.0860   -0.7370 H   0  0  0  0  0  0  0  0  0  0  0
    1.4440   11.3670   -2.2740 H   0  0  0  0  0  0  0  0  0  0  0
    1.4480   11.5400   -0.5270 H   0  0  0  0  0  0  0  0  0  0  0
    0.0010   11.8650   -1.4290 H   0  0  0  0  0  0  0  0  0  0  0
    2.2660    9.4200    2.0950 H   0  0  0  0  0  0  0  0  0  0  0
    2.2870    9.2570    0.3470 H   0  0  0  0  0  0  0  0  0  0  0
    1.4220    8.1060    1.3170 H   0  0  0  0  0  0  0  0  0  0  0
   -8.3470   -0.4210   -1.9060 H   0  0  0  0  0  0  0  0  0  0  0
   -8.5770    0.0170   -0.2290 H   0  0  0  0  0  0  0  0  0  0  0
   -8.5330    2.3960   -0.8300 H   0  0  0  0  0  0  0  0  0  0  0
   -8.2540    1.9340   -2.4940 H   0  0  0  0  0  0  0  0  0  0  0
    1.3110    9.1840   -1.2400 H   0  0  0  0  0  0  0  0  0  0  0
   -0.1640    9.5750   -2.0890 H   0  0  0  0  0  0  0  0  0  0  0
    0.7290   11.0070    1.1090 H   0  0  0  0  0  0  0  0  0  0  0
   -0.1200    9.7870    2.0260 H   0  0  0  0  0  0  0  0  0  0  0
   -1.7950    8.2470   -1.8360 H   0  0  0  0  0  0  0  0  0  0  0
   -2.8110    8.6790   -0.4740 H   0  0  0  0  0  0  0  0  0  0  0
   -0.0390    7.5780   -0.2120 H   0  0  0  0  0  0  0  0  0  0  0
   -1.1140    8.0830    1.0760 H   0  0  0  0  0  0  0  0  0  0  0
   -6.1440    0.8800   -1.8930 H   0  0  0  0  0  0  0  0  0  0  0
   -6.4020    1.2840   -0.2290 H   0  0  0  0  0  0  0  0  0  0  0
   -3.2100    6.4720   -0.0300 H   0  0  0  0  0  0  0  0  0  0  0
   -1.1630   10.2130   -0.0580 H   0  0  0  0  0  0  0  0  0  0  0
  1  2  1  0  0  0  0
  1  3  2  0  0  0  0
  1 26  1  0  0  0  0
  2  4  2  0  0  0  0
  2 27  1  0  0  0  0
  3  6  1  0  0  0  0
  3 28  1  0  0  0  0
  4  8  1  0  0  0  0
  4 29  1  0  0  0  0
  5  7  2  0  0  0  0
  5  9  1  0  0  0  0
  5 30  1  0  0  0  0
  6  7  1  0  0  0  0
  6  8  2  0  0  0  0
  7 10  1  0  0  0  0
  8 21  1  0  0  0  0
  9 21  2  0  0  0  0
  9 25  1  0  0  0  0
 10 22  1  0  0  0  0
 10 24  2  0  0  0  0
 11 14  1  0  0  0  0
 11 31  1  0  0  0  0
 11 32  1  0  0  0  0
 11 33  1  0  0  0  0
 12 16  1  0  0  0  0
 12 34  1  0  0  0  0
 12 35  1  0  0  0  0
 12 36  1  0  0  0  0
 13 17  1  0  0  0  0
 13 37  1  0  0  0  0
 13 38  1  0  0  0  0
 13 39  1  0  0  0  0
 14 15  1  0  0  0  0
 14 40  1  0  0  0  0
 14 41  1  0  0  0  0
 15 20  1  0  0  0  0
 15 42  1  0  0  0  0
 15 43  1  0  0  0  0
 16 23  1  0  0  0  0
 16 44  1  0  0  0  0
 16 45  1  0  0  0  0
 17 23  1  0  0  0  0
 17 46  1  0  0  0  0
 17 47  1  0  0  0  0
 18 19  1  0  0  0  0
 18 22  1  0  0  0  0
 18 48  1  0  0  0  0
 18 49  1  0  0  0  0
 19 23  1  0  0  0  0
 19 50  1  0  0  0  0
 19 51  1  0  0  0  0
 20 25  1  0  0  0  0
 20 52  1  0  0  0  0
 20 53  1  0  0  0  0
 22 54  1  0  0  0  0
 23 55  1  0  0  0  0
M  END
$$$$
