

ResForm 1
 78 79  0  0  0  0  0  0  0  0999 V2000
    5.8160   -4.1060   -5.2600 C   0  0  0  0  0  0  0  0  0  0  0
    8.4640   -6.4020   -2.9320 C   0  0  0  0  0  0  0  0  0  0  0
    5.9160   -5.4920   -5.3840 C   0  0  0  0  0  0  0  0  0  0  0
    4.8620   -3.5490   -4.4070 C   0  0  0  0  0  0  0  0  0  0  0
    7.6800   -6.9940   -1.9420 C   0  0  0  0  0  0  0  0  0  0  0
    8.7390   -5.0360   -2.8790 C   0  0  0  0  0  0  0  0  0  0  0
    5.0630   -6.3210   -4.6560 C   0  0  0  0  0  0  0  0  0  0  0
    4.0090   -4.3780   -3.6790 C   0  0  0  0  0  0  0  0  0  0  0
    7.1700   -6.2200   -0.8990 C   0  0  0  0  0  0  0  0  0  0  0
    8.2290   -4.2610   -1.8360 C   0  0  0  0  0  0  0  0  0  0  0
    4.1090   -5.7640   -3.8030 C   0  0  0  0  0  0  0  0  0  0  0
    7.4450   -4.8540   -0.8470 C   0  0  0  0  0  0  0  0  0  0  0
    1.8520   -6.6470   -3.1170 C   0  0  0  0  0  0  0  0  0  0  0
    6.0750   -2.9720    0.1150 C   0  0  0  0  0  0  0  0  0  0  0
    5.1940   -7.8010   -4.8100 C   0  0  0  0  0  0  0  0  0  0  0
    2.9980   -3.7510   -2.7740 C   0  0  0  0  0  0  0  0  0  0  0
    6.3330   -6.8830    0.1460 C   0  0  0  0  0  0  0  0  0  0  0
    8.5420   -2.8000   -1.8080 C   0  0  0  0  0  0  0  0  0  0  0
    1.0120   -8.1440    0.1800 C   0  0  0  0  0  0  0  0  0  0  0
    4.3030   -0.8940    2.6370 C   0  0  0  0  0  0  0  0  0  0  0
    1.3160   -7.6940   -2.1610 C   0  0  0  0  0  0  0  0  0  0  0
    5.7650   -2.4190    1.4930 C   0  0  0  0  0  0  0  0  0  0  0
    0.9450   -4.2850    0.2380 C   0  0  0  0  0  0  0  0  0  0  0
    0.8670   -3.3010    1.4080 C   0  0  0  0  0  0  0  0  0  0  0
   -0.2000   -5.3030    0.2950 C   0  0  0  0  0  0  0  0  0  0  0
    1.9930   -2.2610    1.4060 C   0  0  0  0  0  0  0  0  0  0  0
   -0.1450   -6.3080   -0.8510 C   0  0  0  0  0  0  0  0  0  0  0
    3.3990   -2.8360    1.5490 C   0  0  0  0  0  0  0  0  0  0  0
    3.2430   -6.6050   -3.0650 N   0  0  0  0  0  0  0  0  0  0  0
    6.9280   -4.0680    0.2110 N   0  0  0  0  0  0  0  0  0  0  0
    1.0620   -7.0880   -0.8440 N   0  3  1  0  0  0  0  0  0  0  0
    4.4180   -1.8250    1.5030 N   0  3  1  0  0  0  0  0  0  0  0
    1.1130   -5.9670   -3.8230 O   0  0  0  0  0  0  0  0  0  0  0
    5.6010   -2.4850   -0.9060 O   0  0  0  0  0  0  0  0  0  0  0
    6.4470   -3.4930   -5.7980 H   0  0  0  0  0  0  0  0  0  0  0
    8.8410   -6.9750   -3.7030 H   0  0  0  0  0  0  0  0  0  0  0
    6.6220   -5.9040   -6.0140 H   0  0  0  0  0  0  0  0  0  0  0
    4.7880   -2.5240   -4.3150 H   0  0  0  0  0  0  0  0  0  0  0
    7.4760   -8.0050   -1.9810 H   0  0  0  0  0  0  0  0  0  0  0
    9.3190   -4.5970   -3.6110 H   0  0  0  0  0  0  0  0  0  0  0
    5.9780   -8.0200   -5.5040 H   0  0  0  0  0  0  0  0  0  0  0
    4.2710   -8.2220   -5.1490 H   0  0  0  0  0  0  0  0  0  0  0
    5.4340   -8.2340   -3.8610 H   0  0  0  0  0  0  0  0  0  0  0
    3.0860   -2.6860   -2.8240 H   0  0  0  0  0  0  0  0  0  0  0
    3.1410   -4.0880   -1.7690 H   0  0  0  0  0  0  0  0  0  0  0
    2.0170   -4.0380   -3.0910 H   0  0  0  0  0  0  0  0  0  0  0
    6.2430   -7.9260   -0.0760 H   0  0  0  0  0  0  0  0  0  0  0
    5.3650   -6.4290    0.1890 H   0  0  0  0  0  0  0  0  0  0  0
    6.8040   -6.7670    1.1000 H   0  0  0  0  0  0  0  0  0  0  0
    9.1520   -2.5490   -2.6500 H   0  0  0  0  0  0  0  0  0  0  0
    9.0440   -2.5470   -0.8980 H   0  0  0  0  0  0  0  0  0  0  0
    7.6290   -2.2440   -1.8560 H   0  0  0  0  0  0  0  0  0  0  0
    1.9230   -8.7050    0.1590 H   0  0  0  0  0  0  0  0  0  0  0
    0.1760   -8.7880    0.0070 H   0  0  0  0  0  0  0  0  0  0  0
    0.8990   -7.6930    1.1440 H   0  0  0  0  0  0  0  0  0  0  0
    5.0740   -0.1550    2.5720 H   0  0  0  0  0  0  0  0  0  0  0
    4.3760   -1.4260    3.5620 H   0  0  0  0  0  0  0  0  0  0  0
    3.3490   -0.4100    2.5990 H   0  0  0  0  0  0  0  0  0  0  0
    2.0140   -8.5000   -2.0670 H   0  0  0  0  0  0  0  0  0  0  0
    0.3970   -8.0810   -2.5490 H   0  0  0  0  0  0  0  0  0  0  0
    6.4940   -1.6870    1.7700 H   0  0  0  0  0  0  0  0  0  0  0
    5.7960   -3.2190    2.2030 H   0  0  0  0  0  0  0  0  0  0  0
    1.8860   -4.7920    0.2490 H   0  0  0  0  0  0  0  0  0  0  0
    0.8520   -3.7290   -0.6720 H   0  0  0  0  0  0  0  0  0  0  0
    0.8790   -3.8410    2.3310 H   0  0  0  0  0  0  0  0  0  0  0
   -0.0500   -2.7610    1.2950 H   0  0  0  0  0  0  0  0  0  0  0
   -1.1390   -4.7910    0.2820 H   0  0  0  0  0  0  0  0  0  0  0
   -0.0900   -5.8530    1.2060 H   0  0  0  0  0  0  0  0  0  0  0
    1.8200   -1.5500    2.1870 H   0  0  0  0  0  0  0  0  0  0  0
    1.9640   -1.8020    0.4400 H   0  0  0  0  0  0  0  0  0  0  0
   -0.2380   -5.7950   -1.7860 H   0  0  0  0  0  0  0  0  0  0  0
   -0.9620   -6.9860   -0.7180 H   0  0  0  0  0  0  0  0  0  0  0
    3.5730   -3.5600    0.7800 H   0  0  0  0  0  0  0  0  0  0  0
    3.4550   -3.2990    2.5130 H   0  0  0  0  0  0  0  0  0  0  0
    3.6740   -7.2330   -2.4410 H   0  0  0  0  0  0  0  0  0  0  0
    7.2040   -4.3260    1.1200 H   0  0  0  0  0  0  0  0  0  0  0
    1.8250   -6.4490   -0.6230 H   0  0  0  0  0  0  0  0  0  0  0
    4.2800   -1.3070    0.6350 H   0  0  0  0  0  0  0  0  0  0  0
  1  3  2  0  0  0  0
  1  4  1  0  0  0  0
  1 35  1  0  0  0  0
  2  5  1  0  0  0  0
  2  6  2  0  0  0  0
  2 36  1  0  0  0  0
  3  7  1  0  0  0  0
  3 37  1  0  0  0  0
  4  8  2  0  0  0  0
  4 38  1  0  0  0  0
  5  9  2  0  0  0  0
  5 39  1  0  0  0  0
  6 10  1  0  0  0  0
  6 40  1  0  0  0  0
  7 11  2  0  0  0  0
  7 15  1  0  0  0  0
  8 11  1  0  0  0  0
  8 16  1  0  0  0  0
  9 12  1  0  0  0  0
  9 17  1  0  0  0  0
 10 12  2  0  0  0  0
 10 18  1  0  0  0  0
 11 29  1  0  0  0  0
 12 30  1  0  0  0  0
 13 21  1  0  0  0  0
 13 29  1  0  0  0  0
 13 33  2  0  0  0  0
 14 22  1  0  0  0  0
 14 30  1  0  0  0  0
 14 34  2  0  0  0  0
 15 41  1  0  0  0  0
 15 42  1  0  0  0  0
 15 43  1  0  0  0  0
 16 44  1  0  0  0  0
 16 45  1  0  0  0  0
 16 46  1  0  0  0  0
 17 47  1  0  0  0  0
 17 48  1  0  0  0  0
 17 49  1  0  0  0  0
 18 50  1  0  0  0  0
 18 51  1  0  0  0  0
 18 52  1  0  0  0  0
 19 31  1  0  0  0  0
 19 53  1  0  0  0  0
 19 54  1  0  0  0  0
 19 55  1  0  0  0  0
 20 32  1  0  0  0  0
 20 56  1  0  0  0  0
 20 57  1  0  0  0  0
 20 58  1  0  0  0  0
 21 31  1  0  0  0  0
 21 59  1  0  0  0  0
 21 60  1  0  0  0  0
 22 32  1  0  0  0  0
 22 61  1  0  0  0  0
 22 62  1  0  0  0  0
 23 24  1  0  0  0  0
 23 25  1  0  0  0  0
 23 63  1  0  0  0  0
 23 64  1  0  0  0  0
 24 26  1  0  0  0  0
 24 65  1  0  0  0  0
 24 66  1  0  0  0  0
 25 27  1  0  0  0  0
 25 67  1  0  0  0  0
 25 68  1  0  0  0  0
 26 28  1  0  0  0  0
 26 69  1  0  0  0  0
 26 70  1  0  0  0  0
 27 31  1  0  0  0  0
 27 71  1  0  0  0  0
 27 72  1  0  0  0  0
 28 32  1  0  0  0  0
 28 73  1  0  0  0  0
 28 74  1  0  0  0  0
 29 75  1  0  0  0  0
 30 76  1  0  0  0  0
 31 77  1  0  0  0  0
 32 78  1  0  0  0  0
M  END
$$$$
