

ResForm 1
 38 38  0  0  0  0  0  0  0  0999 V2000
   -0.9140   -5.8420    4.8530 C   0  0  0  0  0  0  0  0  0  0  0
    0.4590   -3.9150    5.3450 C   0  0  0  0  0  0  0  0  0  0  0
   -0.9930   -6.1330    6.2150 C   0  0  0  0  0  0  0  0  0  0  0
    0.3790   -4.2070    6.7070 C   0  0  0  0  0  0  0  0  0  0  0
   -0.1880   -4.7330    4.4180 C   0  0  0  0  0  0  0  0  0  0  0
   -0.3470   -5.3150    7.1420 C   0  0  0  0  0  0  0  0  0  0  0
   -0.1030   -4.4230    2.9690 C   0  0  0  0  0  0  0  0  0  0  0
    2.8780    0.8550    0.5830 C   0  0  0  0  0  0  0  0  0  0  0
    0.8180   -0.2060   -1.9960 C   0  0  0  0  0  0  0  0  0  0  0
    3.0330   -0.4120   -0.1880 C   0  0  0  0  0  0  0  0  0  0  0
    0.6640   -0.5630   -0.5570 C   0  0  0  0  0  0  0  0  0  0  0
    1.6570   -1.6540    1.3400 C   0  0  0  0  0  0  0  0  0  0  0
    0.8000   -2.9060    1.4010 C   0  0  0  0  0  0  0  0  0  0  0
   -0.4270   -5.6100    8.5190 N   0  0  0  0  0  0  0  0  0  0  0
    1.8480   -1.2590   -0.0550 N   0  3  2  0  0  0  0  0  0  0  0
   -0.6450   -5.0980    2.1070 O   0  0  0  0  0  0  0  0  0  0  0
    0.6460   -3.3070    2.7570 O   0  0  0  0  0  0  0  0  0  0  0
   -1.3920   -6.4470    4.1680 H   0  0  0  0  0  0  0  0  0  0  0
    0.9960   -3.0950    5.0230 H   0  0  0  0  0  0  0  0  0  0  0
   -1.5300   -6.9530    6.5370 H   0  0  0  0  0  0  0  0  0  0  0
    0.8580   -3.6020    7.3930 H   0  0  0  0  0  0  0  0  0  0  0
    3.7570    1.4530    0.4680 H   0  0  0  0  0  0  0  0  0  0  0
    2.7090    0.6400    1.6180 H   0  0  0  0  0  0  0  0  0  0  0
    2.0340    1.3940    0.2070 H   0  0  0  0  0  0  0  0  0  0  0
   -0.0610    0.3000   -2.3350 H   0  0  0  0  0  0  0  0  0  0  0
    0.9870   -1.0870   -2.5800 H   0  0  0  0  0  0  0  0  0  0  0
    1.6630    0.4410   -2.1080 H   0  0  0  0  0  0  0  0  0  0  0
    3.9000   -0.9410    0.1480 H   0  0  0  0  0  0  0  0  0  0  0
    3.1490   -0.1610   -1.2220 H   0  0  0  0  0  0  0  0  0  0  0
   -0.2030   -1.1760   -0.4240 H   0  0  0  0  0  0  0  0  0  0  0
    0.5480    0.3420    0.0010 H   0  0  0  0  0  0  0  0  0  0  0
    2.6030   -1.8300    1.8080 H   0  0  0  0  0  0  0  0  0  0  0
    1.1610   -0.8640    1.8630 H   0  0  0  0  0  0  0  0  0  0  0
    1.2510   -3.6920    0.8310 H   0  0  0  0  0  0  0  0  0  0  0
   -0.1620   -2.6960    0.9840 H   0  0  0  0  0  0  0  0  0  0  0
   -0.9390   -6.3920    8.8260 H   0  0  0  0  0  0  0  0  0  0  0
    0.0290   -5.0320    9.1730 H   0  0  0  0  0  0  0  0  0  0  0
    1.9890   -2.1010   -0.6130 H   0  0  0  0  0  0  0  0  0  0  0
  1  3  2  0  0  0  0
  1  5  1  0  0  0  0
  1 18  1  0  0  0  0
  2  4  1  0  0  0  0
  2  5  2  0  0  0  0
  2 19  1  0  0  0  0
  3  6  1  0  0  0  0
  3 20  1  0  0  0  0
  4  6  2  0  0  0  0
  4 21  1  0  0  0  0
  5  7  1  0  0  0  0
  6 14  1  0  0  0  0
  7 16  2  0  0  0  0
  7 17  1  0  0  0  0
  8 10  1  0  0  0  0
  8 22  1  0  0  0  0
  8 23  1  0  0  0  0
  8 24  1  0  0  0  0
  9 11  1  0  0  0  0
  9 25  1  0  0  0  0
  9 26  1  0  0  0  0
  9 27  1  0  0  0  0
 10 15  1  0  0  0  0
 10 28  1  0  0  0  0
 10 29  1  0  0  0  0
 11 15  1  0  0  0  0
 11 30  1  0  0  0  0
 11 31  1  0  0  0  0
 12 13  1  0  0  0  0
 12 15  1  0  0  0  0
 12 32  1  0  0  0  0
 12 33  1  0  0  0  0
 13 17  1  0  0  0  0
 13 34  1  0  0  0  0
 13 35  1  0  0  0  0
 14 36  1  0  0  0  0
 14 37  1  0  0  0  0
 15 38  1  0  0  0  0
M  END
$$$$
