

ResForm 1
 23 23  0  0  0  0  0  0  0  0999 V2000
    1.8850   -1.0360   -0.1120 C   0  0  0  0  0  0  0  0  0  0  0
    2.8780   -1.6520    2.0020 C   0  0  0  0  0  0  0  0  0  0  0
    0.8070   -0.4630    0.5610 C   0  0  0  0  0  0  0  0  0  0  0
    1.8000   -1.0790    2.6760 C   0  0  0  0  0  0  0  0  0  0  0
    2.9210   -1.6310    0.6080 C   0  0  0  0  0  0  0  0  0  0  0
    0.7640   -0.4840    1.9550 C   0  0  0  0  0  0  0  0  0  0  0
    4.0450   -2.2290   -0.0940 C   0  0  0  0  0  0  0  0  0  0  0
    6.9980   -3.8980    1.3180 C   0  0  0  0  0  0  0  0  0  0  0
    6.1150   -3.3770    0.2040 C   0  0  0  0  0  0  0  0  0  0  0
   -0.3270    0.0960    2.6360 N   0  0  0  0  0  0  0  0  0  0  0
    4.1670   -2.2560   -1.3260 O   0  0  0  0  0  0  0  0  0  0  0
    4.9580   -2.7590    0.7770 O   0  0  0  0  0  0  0  0  0  0  0
    1.9170   -1.0210   -1.1440 H   0  0  0  0  0  0  0  0  0  0  0
    3.6450   -2.0920    2.5350 H   0  0  0  0  0  0  0  0  0  0  0
    0.0400   -0.0230    0.0280 H   0  0  0  0  0  0  0  0  0  0  0
    1.7680   -1.0940    3.7070 H   0  0  0  0  0  0  0  0  0  0  0
    7.8660   -4.3630    0.8980 H   0  0  0  0  0  0  0  0  0  0  0
    6.4590   -4.5980    1.9210 H   0  0  0  0  0  0  0  0  0  0  0
    7.3020   -3.0810    1.9380 H   0  0  0  0  0  0  0  0  0  0  0
    5.8270   -4.1760   -0.4470 H   0  0  0  0  0  0  0  0  0  0  0
    6.6570   -2.6570   -0.3730 H   0  0  0  0  0  0  0  0  0  0  0
   -1.0580    0.5150    2.1270 H   0  0  0  0  0  0  0  0  0  0  0
   -0.3570    0.0810    3.6200 H   0  0  0  0  0  0  0  0  0  0  0
  1  3  2  0  0  0  0
  1  5  1  0  0  0  0
  1 13  1  0  0  0  0
  2  4  1  0  0  0  0
  2  5  2  0  0  0  0
  2 14  1  0  0  0  0
  3  6  1  0  0  0  0
  3 15  1  0  0  0  0
  4  6  2  0  0  0  0
  4 16  1  0  0  0  0
  5  7  1  0  0  0  0
  6 10  1  0  0  0  0
  7 11  2  0  0  0  0
  7 12  1  0  0  0  0
  8  9  1  0  0  0  0
  8 17  1  0  0  0  0
  8 18  1  0  0  0  0
  8 19  1  0  0  0  0
  9 12  1  0  0  0  0
  9 20  1  0  0  0  0
  9 21  1  0  0  0  0
 10 22  1  0  0  0  0
 10 23  1  0  0  0  0
M  END
$$$$
