

ResForm 1
 50 51  0  0  0  0  0  0  0  0999 V2000
   -1.2080    2.6770    4.2530 C   0  0  0  0  0  0  0  0  0  0  0
   -0.1680    1.7790    4.4900 C   0  0  0  0  0  0  0  0  0  0  0
   -2.1120    2.4400    3.2170 C   0  0  0  0  0  0  0  0  0  0  0
   -0.0310    0.6430    3.6910 C   0  0  0  0  0  0  0  0  0  0  0
   -1.9750    1.3040    2.4190 C   0  0  0  0  0  0  0  0  0  0  0
   -0.9350    0.4060    2.6560 C   0  0  0  0  0  0  0  0  0  0  0
   -0.5980   -0.7940    0.4710 C   0  0  0  0  0  0  0  0  0  0  0
    1.2140   -3.9990   -0.5160 C   0  0  0  0  0  0  0  0  0  0  0
    0.6740   -4.0360   -1.9390 C   0  0  0  0  0  0  0  0  0  0  0
    0.9720   -2.6270    0.0960 C   0  0  0  0  0  0  0  0  0  0  0
   -0.7910   -3.6060   -1.9790 C   0  0  0  0  0  0  0  0  0  0  0
   -0.5010   -2.2100   -0.0120 C   0  0  2  0  0  0  0  0  0  0  0
    1.0940   -0.3000    3.9700 C   0  0  0  0  0  0  0  0  0  0  0
   -2.9600    1.0780    1.3180 C   0  0  0  0  0  0  0  0  0  0  0
   -4.5770   -0.3340   -4.3160 C   0  0  0  0  0  0  0  0  0  0  0
   -4.2540   -0.9490   -2.9630 C   0  0  0  0  0  0  0  0  0  0  0
   -2.7790   -1.3450   -2.8670 C   0  0  0  0  0  0  0  0  0  0  0
   -2.4120   -1.9100   -1.4990 C   0  0  0  0  0  0  0  0  0  0  0
   -0.9900   -2.2640   -1.4020 N   0  3  2  0  0  0  0  0  0  0  0
   -0.7960   -0.7460    1.8450 N   0  0  0  0  0  0  0  0  0  0  0
   -0.5000    0.1450   -0.3120 O   0  0  0  0  0  0  0  0  0  0  0
   -1.3090    3.5170    4.8430 H   0  0  0  0  0  0  0  0  0  0  0
    0.5010    1.9540    5.2560 H   0  0  0  0  0  0  0  0  0  0  0
   -2.8820    3.1040    3.0420 H   0  0  0  0  0  0  0  0  0  0  0
    2.2600   -4.2250   -0.5130 H   0  0  0  0  0  0  0  0  0  0  0
    0.7020   -4.7340    0.0680 H   0  0  0  0  0  0  0  0  0  0  0
    0.7770   -5.0210   -2.3430 H   0  0  0  0  0  0  0  0  0  0  0
    1.2420   -3.3490   -2.5310 H   0  0  0  0  0  0  0  0  0  0  0
    1.5920   -1.8990   -0.3840 H   0  0  0  0  0  0  0  0  0  0  0
    1.2210   -2.6830    1.1350 H   0  0  0  0  0  0  0  0  0  0  0
   -1.3930   -4.3190   -1.4560 H   0  0  0  0  0  0  0  0  0  0  0
   -1.0870   -3.5630   -3.0070 H   0  0  0  0  0  0  0  0  0  0  0
   -1.0970   -2.8820    0.5700 H   0  0  0  0  0  0  0  0  0  0  0
    1.6670    0.0610    4.7980 H   0  0  0  0  0  0  0  0  0  0  0
    1.7160   -0.4010    3.1050 H   0  0  0  0  0  0  0  0  0  0  0
    0.6940   -1.2630    4.2120 H   0  0  0  0  0  0  0  0  0  0  0
   -3.6720    1.8770    1.3050 H   0  0  0  0  0  0  0  0  0  0  0
   -3.4580    0.1400    1.4520 H   0  0  0  0  0  0  0  0  0  0  0
   -2.4420    1.0540    0.3820 H   0  0  0  0  0  0  0  0  0  0  0
   -5.6130   -0.0690   -4.3500 H   0  0  0  0  0  0  0  0  0  0  0
   -4.3440   -1.0230   -5.1010 H   0  0  0  0  0  0  0  0  0  0  0
   -3.9840    0.5460   -4.4520 H   0  0  0  0  0  0  0  0  0  0  0
   -4.8730   -1.8060   -2.7950 H   0  0  0  0  0  0  0  0  0  0  0
   -4.4490   -0.2140   -2.2110 H   0  0  0  0  0  0  0  0  0  0  0
   -2.1630   -0.4980   -3.0840 H   0  0  0  0  0  0  0  0  0  0  0
   -2.6110   -2.1200   -3.5850 H   0  0  0  0  0  0  0  0  0  0  0
   -3.0130   -2.7700   -1.2900 H   0  0  0  0  0  0  0  0  0  0  0
   -2.6000   -1.1440   -0.7760 H   0  0  0  0  0  0  0  0  0  0  0
   -0.4460   -1.5800   -1.9270 H   0  0  0  0  0  0  0  0  0  0  0
   -0.8470   -1.6130    2.3090 H   0  0  0  0  0  0  0  0  0  0  0
  1  2  1  0  0  0  0
  1  3  2  0  0  0  0
  1 22  1  0  0  0  0
  2  4  2  0  0  0  0
  2 23  1  0  0  0  0
  3  5  1  0  0  0  0
  3 24  1  0  0  0  0
  4  6  1  0  0  0  0
  4 13  1  0  0  0  0
  5  6  2  0  0  0  0
  5 14  1  0  0  0  0
  6 20  1  0  0  0  0
  7 12  1  0  0  0  0
  7 20  1  0  0  0  0
  7 21  2  0  0  0  0
  8  9  1  0  0  0  0
  8 10  1  0  0  0  0
  8 25  1  0  0  0  0
  8 26  1  0  0  0  0
  9 11  1  0  0  0  0
  9 27  1  0  0  0  0
  9 28  1  0  0  0  0
 10 12  1  0  0  0  0
 10 29  1  0  0  0  0
 10 30  1  0  0  0  0
 11 19  1  0  0  0  0
 11 31  1  0  0  0  0
 11 32  1  0  0  0  0
 12 19  1  0  0  0  0
 12 33  1  0  0  0  0
 13 34  1  0  0  0  0
 13 35  1  0  0  0  0
 13 36  1  0  0  0  0
 14 37  1  0  0  0  0
 14 38  1  0  0  0  0
 14 39  1  0  0  0  0
 15 16  1  0  0  0  0
 15 40  1  0  0  0  0
 15 41  1  0  0  0  0
 15 42  1  0  0  0  0
 16 17  1  0  0  0  0
 16 43  1  0  0  0  0
 16 44  1  0  0  0  0
 17 18  1  0  0  0  0
 17 45  1  0  0  0  0
 17 46  1  0  0  0  0
 18 19  1  0  0  0  0
 18 47  1  0  0  0  0
 18 48  1  0  0  0  0
 19 49  1  0  0  0  0
 20 50  1  0  0  0  0
M  END
$$$$
