

ResForm 1
 50 51  0  0  0  0  0  0  0  0999 V2000
   -0.8730    3.4020    2.6110 C   0  0  0  0  0  0  0  0  0  0  0
   -1.8290    2.8430    1.7630 C   0  0  0  0  0  0  0  0  0  0  0
    0.4690    3.0430    2.4830 C   0  0  0  0  0  0  0  0  0  0  0
   -1.4430    1.9240    0.7870 C   0  0  0  0  0  0  0  0  0  0  0
    0.8550    2.1240    1.5060 C   0  0  0  0  0  0  0  0  0  0  0
   -0.1010    1.5650    0.6590 C   0  0  0  0  0  0  0  0  0  0  0
    0.9150   -0.5930   -0.1390 C   0  0  0  0  0  0  0  0  0  0  0
    2.9570   -1.5710   -3.2070 C   0  0  0  0  0  0  0  0  0  0  0
    2.8870   -3.0700   -2.9530 C   0  0  0  0  0  0  0  0  0  0  0
    2.5300   -0.8120   -1.9580 C   0  0  0  0  0  0  0  0  0  0  0
    1.5050   -3.4750   -2.4410 C   0  0  0  0  0  0  0  0  0  0  0
    1.1630   -1.2840   -1.4460 C   0  0  1  0  0  0  0  0  0  0  0
   -2.4900    1.3420   -0.1060 C   0  0  0  0  0  0  0  0  0  0  0
    2.3000    1.7600    1.3930 C   0  0  0  0  0  0  0  0  0  0  0
    0.7300   -5.8810    1.8880 C   0  0  0  0  0  0  0  0  0  0  0
    0.7380   -4.5330    1.1830 C   0  0  0  0  0  0  0  0  0  0  0
   -0.1300   -4.5560   -0.0770 C   0  0  0  0  0  0  0  0  0  0  0
   -0.1890   -3.2000   -0.7720 C   0  0  0  0  0  0  0  0  0  0  0
    1.1320   -2.7410   -1.2180 N   0  3  1  0  0  0  0  0  0  0  0
    0.2900    0.6330   -0.3320 N   0  0  0  0  0  0  0  0  0  0  0
    1.2500   -1.1130    0.9200 O   0  0  0  0  0  0  0  0  0  0  0
   -1.1580    4.0810    3.3340 H   0  0  0  0  0  0  0  0  0  0  0
   -2.8210    3.1090    1.8590 H   0  0  0  0  0  0  0  0  0  0  0
    1.1760    3.4570    3.1100 H   0  0  0  0  0  0  0  0  0  0  0
    2.3290   -1.3060   -4.0310 H   0  0  0  0  0  0  0  0  0  0  0
    3.9660   -1.3070   -3.4450 H   0  0  0  0  0  0  0  0  0  0  0
    3.6380   -3.3570   -2.2470 H   0  0  0  0  0  0  0  0  0  0  0
    3.0620   -3.5750   -3.8800 H   0  0  0  0  0  0  0  0  0  0  0
    2.4990    0.2380   -2.1640 H   0  0  0  0  0  0  0  0  0  0  0
    3.2520   -1.0080   -1.1930 H   0  0  0  0  0  0  0  0  0  0  0
    1.4830   -4.5280   -2.2530 H   0  0  0  0  0  0  0  0  0  0  0
    0.7930   -3.2240   -3.1990 H   0  0  0  0  0  0  0  0  0  0  0
    0.4180   -1.0530   -2.1780 H   0  0  0  0  0  0  0  0  0  0  0
   -3.4470    1.7450    0.1550 H   0  0  0  0  0  0  0  0  0  0  0
   -2.5010    0.2760   -0.0180 H   0  0  0  0  0  0  0  0  0  0  0
   -2.2670    1.5950   -1.1220 H   0  0  0  0  0  0  0  0  0  0  0
    2.8620    2.2950    2.1300 H   0  0  0  0  0  0  0  0  0  0  0
    2.6630    1.9870    0.4130 H   0  0  0  0  0  0  0  0  0  0  0
    2.4120    0.7090    1.5610 H   0  0  0  0  0  0  0  0  0  0  0
    1.3450   -5.8310    2.7620 H   0  0  0  0  0  0  0  0  0  0  0
    1.0850   -6.6450    1.2290 H   0  0  0  0  0  0  0  0  0  0  0
   -0.2720   -6.1210    2.1760 H   0  0  0  0  0  0  0  0  0  0  0
    1.7420   -4.2600    0.9290 H   0  0  0  0  0  0  0  0  0  0  0
    0.3290   -3.8070    1.8540 H   0  0  0  0  0  0  0  0  0  0  0
   -1.1200   -4.8770    0.1730 H   0  0  0  0  0  0  0  0  0  0  0
    0.3210   -5.2440   -0.7610 H   0  0  0  0  0  0  0  0  0  0  0
   -0.6210   -2.4740   -0.1140 H   0  0  0  0  0  0  0  0  0  0  0
   -0.7980   -3.3150   -1.6450 H   0  0  0  0  0  0  0  0  0  0  0
    1.8110   -2.9330   -0.4810 H   0  0  0  0  0  0  0  0  0  0  0
    0.0970    0.8810   -1.2650 H   0  0  0  0  0  0  0  0  0  0  0
  1  2  1  0  0  0  0
  1  3  2  0  0  0  0
  1 22  1  0  0  0  0
  2  4  2  0  0  0  0
  2 23  1  0  0  0  0
  3  5  1  0  0  0  0
  3 24  1  0  0  0  0
  4  6  1  0  0  0  0
  4 13  1  0  0  0  0
  5  6  2  0  0  0  0
  5 14  1  0  0  0  0
  6 20  1  0  0  0  0
  7 12  1  0  0  0  0
  7 20  1  0  0  0  0
  7 21  2  0  0  0  0
  8  9  1  0  0  0  0
  8 10  1  0  0  0  0
  8 25  1  0  0  0  0
  8 26  1  0  0  0  0
  9 11  1  0  0  0  0
  9 27  1  0  0  0  0
  9 28  1  0  0  0  0
 10 12  1  0  0  0  0
 10 29  1  0  0  0  0
 10 30  1  0  0  0  0
 11 19  1  0  0  0  0
 11 31  1  0  0  0  0
 11 32  1  0  0  0  0
 12 19  1  0  0  0  0
 12 33  1  0  0  0  0
 13 34  1  0  0  0  0
 13 35  1  0  0  0  0
 13 36  1  0  0  0  0
 14 37  1  0  0  0  0
 14 38  1  0  0  0  0
 14 39  1  0  0  0  0
 15 16  1  0  0  0  0
 15 40  1  0  0  0  0
 15 41  1  0  0  0  0
 15 42  1  0  0  0  0
 16 17  1  0  0  0  0
 16 43  1  0  0  0  0
 16 44  1  0  0  0  0
 17 18  1  0  0  0  0
 17 45  1  0  0  0  0
 17 46  1  0  0  0  0
 18 19  1  0  0  0  0
 18 47  1  0  0  0  0
 18 48  1  0  0  0  0
 19 49  1  0  0  0  0
 20 50  1  0  0  0  0
M  END
$$$$
