

ResForm 1
 40 40  0  0  0  0  0  0  0  0999 V2000
   -4.9540   -4.1460   -1.3490 C   0  0  0  0  0  0  0  0  0  0  0
   -4.3710   -3.2410   -2.2360 C   0  0  0  0  0  0  0  0  0  0  0
   -4.6170   -4.1110    0.0040 C   0  0  0  0  0  0  0  0  0  0  0
   -3.4500   -2.3030   -1.7710 C   0  0  0  0  0  0  0  0  0  0  0
   -3.6970   -3.1720    0.4700 C   0  0  0  0  0  0  0  0  0  0  0
   -3.1130   -2.2680   -0.4180 C   0  0  0  0  0  0  0  0  0  0  0
   -0.9640   -1.5600    0.6880 C   0  0  0  0  0  0  0  0  0  0  0
   -2.8420   -1.3470   -2.7460 C   0  0  0  0  0  0  0  0  0  0  0
   -3.3560   -3.1600    1.9250 C   0  0  0  0  0  0  0  0  0  0  0
    1.9390    1.1920    2.1420 C   0  0  0  0  0  0  0  0  0  0  0
    2.1590   -0.2450   -1.8010 C   0  0  0  0  0  0  0  0  0  0  0
   -0.2720   -0.2550    1.0310 C   0  0  0  0  0  0  0  0  0  0  0
    1.7000    1.0710    0.6750 C   0  0  0  0  0  0  0  0  0  0  0
    0.8490   -0.3150   -1.0940 C   0  0  0  0  0  0  0  0  0  0  0
   -2.1790   -1.3150    0.0550 N   0  0  0  0  0  0  0  0  0  0  0
    1.0220   -0.1840    0.3530 N   0  3  2  0  0  0  0  0  0  0  0
   -0.4670   -2.6510    0.9480 O   0  0  0  0  0  0  0  0  0  0  0
   -5.6350   -4.8410   -1.6940 H   0  0  0  0  0  0  0  0  0  0  0
   -4.6200   -3.2670   -3.2370 H   0  0  0  0  0  0  0  0  0  0  0
   -5.0490   -4.7800    0.6610 H   0  0  0  0  0  0  0  0  0  0  0
   -3.2310   -1.5390   -3.7240 H   0  0  0  0  0  0  0  0  0  0  0
   -1.7770   -1.4440   -2.7450 H   0  0  0  0  0  0  0  0  0  0  0
   -3.0910   -0.3460   -2.4590 H   0  0  0  0  0  0  0  0  0  0  0
   -3.9080   -3.9270    2.4270 H   0  0  0  0  0  0  0  0  0  0  0
   -3.5810   -2.2040    2.3500 H   0  0  0  0  0  0  0  0  0  0  0
   -2.3090   -3.3450    2.0430 H   0  0  0  0  0  0  0  0  0  0  0
    2.4350    2.1170    2.3480 H   0  0  0  0  0  0  0  0  0  0  0
    2.5280    0.3700    2.4900 H   0  0  0  0  0  0  0  0  0  0  0
    0.9990    1.1750    2.6530 H   0  0  0  0  0  0  0  0  0  0  0
    2.0020   -0.3430   -2.8550 H   0  0  0  0  0  0  0  0  0  0  0
    2.8110   -1.0180   -1.4500 H   0  0  0  0  0  0  0  0  0  0  0
    2.6170    0.7010   -1.6000 H   0  0  0  0  0  0  0  0  0  0  0
   -0.1390   -0.1750    2.0890 H   0  0  0  0  0  0  0  0  0  0  0
   -0.8820    0.5590    0.7000 H   0  0  0  0  0  0  0  0  0  0  0
    2.6300    1.1300    0.1480 H   0  0  0  0  0  0  0  0  0  0  0
    1.0680    1.8790    0.3720 H   0  0  0  0  0  0  0  0  0  0  0
    0.3600   -1.2390   -1.3210 H   0  0  0  0  0  0  0  0  0  0  0
    0.2430    0.5000   -1.4320 H   0  0  0  0  0  0  0  0  0  0  0
   -2.4170   -0.3690   -0.0800 H   0  0  0  0  0  0  0  0  0  0  0
    1.6010   -0.9580    0.6800 H   0  0  0  0  0  0  0  0  0  0  0
  1  2  1  0  0  0  0
  1  3  2  0  0  0  0
  1 18  1  0  0  0  0
  2  4  2  0  0  0  0
  2 19  1  0  0  0  0
  3  5  1  0  0  0  0
  3 20  1  0  0  0  0
  4  6  1  0  0  0  0
  4  8  1  0  0  0  0
  5  6  2  0  0  0  0
  5  9  1  0  0  0  0
  6 15  1  0  0  0  0
  7 12  1  0  0  0  0
  7 15  1  0  0  0  0
  7 17  2  0  0  0  0
  8 21  1  0  0  0  0
  8 22  1  0  0  0  0
  8 23  1  0  0  0  0
  9 24  1  0  0  0  0
  9 25  1  0  0  0  0
  9 26  1  0  0  0  0
 10 13  1  0  0  0  0
 10 27  1  0  0  0  0
 10 28  1  0  0  0  0
 10 29  1  0  0  0  0
 11 14  1  0  0  0  0
 11 30  1  0  0  0  0
 11 31  1  0  0  0  0
 11 32  1  0  0  0  0
 12 16  1  0  0  0  0
 12 33  1  0  0  0  0
 12 34  1  0  0  0  0
 13 16  1  0  0  0  0
 13 35  1  0  0  0  0
 13 36  1  0  0  0  0
 14 16  1  0  0  0  0
 14 37  1  0  0  0  0
 14 38  1  0  0  0  0
 15 39  1  0  0  0  0
 16 40  1  0  0  0  0
M  END
$$$$
