@<TRIPOS>MOLECULE
CLP
  138   148     1     0     0
SMALL
rc


@<TRIPOS>ATOM
      1 C1          3.1960   -0.4410    3.2840 c3        1 CLP     -0.003799
      2 C2          1.8000   -0.8050    3.9650 c3        1 CLP     -0.003625
      3 N1          3.4000   -1.5130    2.3430 n         1 CLP     -0.043932
      4 N2          1.3140   -1.8880    3.1150 n         1 CLP     -0.082734
      5 N3          2.9230    0.8050    2.6000 n         1 CLP     -0.043932
      6 N4          1.0370    0.4220    3.7860 n         1 CLP     -0.082734
      7 C3          2.2710   -2.2950    2.1960 c         1 CLP      0.481787
      8 C4          1.6880    1.3180    2.9480 c         1 CLP      0.481787
      9 O1          2.1490   -3.2080    1.3910 o         1 CLP     -0.523924
     10 O2          1.2410    2.3910    2.5670 o         1 CLP     -0.523924
     11 C5          0.1350   -2.6730    3.3600 c3        1 CLP     -0.014444
     12 C6          4.4470   -1.4850    1.3540 c3        1 CLP     -0.144435
     13 C7          3.8570    1.4330    1.6740 c3        1 CLP     -0.144435
     14 C8          3.9050    0.7750    0.3070 ca        1 CLP      0.013066
     15 C9          3.7920    1.5550   -0.8650 ca        1 CLP      0.020691
     16 C10         4.0530   -1.1890   -1.1300 ca        1 CLP      0.020691
     17 C11         3.7030    0.9810   -2.1590 ca        1 CLP      0.056323
     18 C12         4.1080   -0.6160    0.1610 ca        1 CLP      0.013066
     19 C13         3.8120   -0.4200   -2.2920 ca        1 CLP      0.056323
     20 C14         3.5050    1.7550   -3.3230 ca        1 CLP     -0.123388
     21 C15         3.4260    1.1740   -4.5890 ca        1 CLP     -0.184570
     22 C16         3.5090   -0.2030   -4.7180 ca        1 CLP     -0.184570
     23 C17         3.6850   -0.9900   -3.5820 ca        1 CLP     -0.123388
     24 O3          3.7690    2.9350   -0.7660 os        1 CLP     -0.275497
     25 O4          4.1330   -2.5610   -1.2260 os        1 CLP     -0.275497
     26 C18         5.1050    3.4550   -0.6760 c3        1 CLP      0.109816
     27 C19         5.2810    4.6660   -1.5880 c3        1 CLP      0.098980
     28 C20         4.4790    5.8970   -1.1760 c3        1 CLP     -0.256113
     29 C21         5.4340   -3.0080   -1.6070 c3        1 CLP      0.109816
     30 C22         5.5950   -4.4720   -1.2000 c3        1 CLP      0.098980
     31 C23         6.8500   -4.7750   -0.3840 c3        1 CLP     -0.256113
     32 S1          5.4690    7.3710   -0.9650 s6        1 CLP      1.373832
     33 O5          6.5750    7.1240   -0.0720 o         1 CLP     -0.762070
     34 O6          5.6440    8.0630   -2.2290 o         1 CLP     -0.762070
     35 S2          8.3920   -4.9570   -1.2900 s6        1 CLP      1.373832
     36 O7          8.9420   -3.6670   -1.6640 o         1 CLP     -0.762070
     37 O8          9.2240   -5.9260   -0.6170 o         1 CLP     -0.762070
     38 O9          4.4050    8.2300   -0.1120 o         1 CLP     -0.762070
     39 O10         7.8410   -5.6380   -2.6420 o         1 CLP     -0.762070
     40 C24        -3.2490   -1.0450    2.8960 c3        1 CLP     -0.003799
     41 C25        -1.8980   -1.1470    3.7420 c3        1 CLP     -0.003625
     42 N5         -3.2190    0.3000    2.3690 n         1 CLP     -0.043932
     43 N6         -1.3890    0.2180    3.6900 n         1 CLP     -0.082734
     44 N7         -3.0530   -1.9920    1.8280 n         1 CLP     -0.043932
     45 N8         -1.0910   -2.0530    2.9330 n         1 CLP     -0.082734
     46 C26        -2.1570    1.0320    2.8670 c         1 CLP      0.481787
     47 C27        -1.7580   -2.4680    1.7890 c         1 CLP      0.481787
     48 O11        -1.9200    2.2040    2.6130 o         1 CLP     -0.523924
     49 O12        -1.2850   -3.1450    0.8840 o         1 CLP     -0.523924
     50 C28        -0.2360    0.7070    4.4070 c3        1 CLP     -0.014444
     51 C29        -4.1840    0.7930    1.4060 c3        1 CLP     -0.144435
     52 C30        -3.9970   -2.1670    0.7500 c3        1 CLP     -0.144435
     53 C31        -3.9230   -1.1020   -0.3220 ca        1 CLP      0.013066
     54 C32        -3.8530   -1.4990   -1.6820 ca        1 CLP      0.020691
     55 C33        -4.0280    1.1990   -1.0910 ca        1 CLP      0.020691
     56 C34        -3.8080   -0.5700   -2.7490 ca        1 CLP      0.056323
     57 C35        -4.0070    0.2780   -0.0160 ca        1 CLP      0.013066
     58 C36        -3.8970    0.8050   -2.4490 ca        1 CLP      0.056323
     59 C37        -3.6570   -0.0320   -5.1390 ca        1 CLP     -0.184570
     60 C38        -3.7430    1.3190   -4.8450 ca        1 CLP     -0.184570
     61 C39        -3.8470    1.7310   -3.5160 ca        1 CLP     -0.123388
     62 O13        -3.7500   -2.8450   -1.9820 os        1 CLP     -0.275497
     63 O14        -4.0900    2.5450   -0.7960 os        1 CLP     -0.275497
     64 C40        -5.0450   -3.4200   -2.1980 c3        1 CLP      0.109816
     65 C41        -4.9070   -4.9350   -2.3640 c3        1 CLP      0.098980
     66 C42        -5.3960   -5.7230   -1.1520 c3        1 CLP     -0.256113
     67 C43        -5.4370    3.0420   -0.8800 c3        1 CLP      0.109816
     68 C44        -5.3690    4.5240   -0.5400 c3        1 CLP      0.098980
     69 C45        -6.7100    5.2190   -0.7110 c3        1 CLP     -0.256113
     70 S3         -7.0330   -6.4300   -1.3250 s6        1 CLP      1.373832
     71 O15        -7.2900   -7.3110   -0.2120 o         1 CLP     -0.762070
     72 O16        -8.0030   -5.4270   -1.7200 o         1 CLP     -0.762070
     73 S4         -6.6110    6.9540   -0.2820 s6        1 CLP      1.373832
     74 O17        -5.3950    7.5180   -0.8210 o         1 CLP     -0.762070
     75 O18        -7.9060    7.5650   -0.4620 o         1 CLP     -0.762070
     76 O19        -6.7590   -7.3830   -2.5950 o         1 CLP     -0.762070
     77 O20        -6.4220    6.7850    1.3110 o         1 CLP     -0.762070
     78 C46        -3.6780   -0.9630   -4.1030 ca        1 CLP     -0.123388
     79 C47        -4.5310   -1.3130    3.6970 c3        1 CLP     -0.436992
     80 C48        -2.1130   -1.6490    5.1760 c3        1 CLP     -0.271156
     81 C49         1.9380   -1.2360    5.4320 c3        1 CLP     -0.271156
     82 C50         4.3690   -0.2890    4.2620 c3        1 CLP     -0.436992
     83 H1          0.0720   -2.9030    4.4030 h2        1 CLP      0.087656
     84 H2          0.2410   -3.5590    2.7690 h2        1 CLP      0.087656
     85 H3          4.6590   -2.4810    1.0250 h1        1 CLP      0.121133
     86 H4          5.3090   -1.0540    1.8200 h1        1 CLP      0.121133
     87 H5          4.8360    1.4370    2.1030 h1        1 CLP      0.121133
     88 H6          3.5010    2.4300    1.5170 h1        1 CLP      0.121133
     89 H7          3.4140    2.7790   -3.2350 ha        1 CLP      0.146534
     90 H8          3.3070    1.7660   -5.4250 ha        1 CLP      0.145810
     91 H9          3.4410   -0.6430   -5.6490 ha        1 CLP      0.145810
     92 H10         3.7230   -2.0160   -3.6830 ha        1 CLP      0.146534
     93 H11         5.8120    2.6950   -0.9360 h1        1 CLP      0.020463
     94 H12         5.2770    3.7650    0.3340 h1        1 CLP      0.020463
     95 H13         5.0240    4.3950   -2.5910 hc        1 CLP      0.000970
     96 H14         6.3100    4.9470   -1.5060 hc        1 CLP      0.000970
     97 H15         3.9490    5.6900   -0.2690 h1        1 CLP      0.062768
     98 H16         3.8030    6.1000   -1.9800 h1        1 CLP      0.062768
     99 H17         6.1860   -2.4080   -1.1390 h1        1 CLP      0.020463
    100 H18         5.5480   -2.9170   -2.6670 h1        1 CLP      0.020463
    101 H19         5.5850   -5.0860   -2.0760 hc        1 CLP      0.000970
    102 H20         4.7680   -4.6890   -0.5560 hc        1 CLP      0.000970
    103 H21         6.6830   -5.6590    0.1960 h1        1 CLP      0.062768
    104 H22         6.9960   -3.9000    0.2140 h1        1 CLP      0.062768
    105 H23        -0.3310    1.7640    4.5500 h2        1 CLP      0.087656
    106 H24        -0.2290    0.1780    5.3370 h2        1 CLP      0.087656
    107 H25        -4.1590    1.8630    1.3990 h1        1 CLP      0.121133
    108 H26        -5.1300    0.4160    1.7310 h1        1 CLP      0.121133
    109 H27        -4.9890   -2.2020    1.1480 h1        1 CLP      0.121133
    110 H28        -3.7360   -3.0880    0.2720 h1        1 CLP      0.121133
    111 H29        -3.5790   -0.3470   -6.1180 ha        1 CLP      0.145810
    112 H30        -3.7290    2.0170   -5.6060 ha        1 CLP      0.145810
    113 H31        -3.8900    2.7400   -3.3060 ha        1 CLP      0.146534
    114 H32        -5.5010   -2.9920   -3.0670 h1        1 CLP      0.020463
    115 H33        -5.6690   -3.2130   -1.3540 h1        1 CLP      0.020463
    116 H34        -3.8850   -5.1810   -2.5640 hc        1 CLP      0.000970
    117 H35        -5.5320   -5.2140   -3.1860 hc        1 CLP      0.000970
    118 H36        -5.3720   -5.0940   -0.2860 h1        1 CLP      0.062768
    119 H37        -4.7290   -6.5540   -1.0550 h1        1 CLP      0.062768
    120 H38        -6.0770    2.5240   -0.1960 h1        1 CLP      0.020463
    121 H39        -5.8440    2.8890   -1.8580 h1        1 CLP      0.020463
    122 H40        -4.6330    5.0020   -1.1540 hc        1 CLP      0.000970
    123 H41        -5.0970    4.6040    0.4910 hc        1 CLP      0.000970
    124 H42        -7.4500    4.7360   -0.1060 h1        1 CLP      0.062768
    125 H43        -6.9880    5.1490   -1.7420 h1        1 CLP      0.062768
    126 H44        -3.5960   -1.9670   -4.3280 ha        1 CLP      0.146534
    127 H45        -4.6260   -0.5840    4.4730 hc        1 CLP      0.134973
    128 H46        -4.5080   -2.2980    4.1150 hc        1 CLP      0.134973
    129 H47        -5.3750   -1.2420    3.0430 hc        1 CLP      0.134973
    130 H48        -2.7100   -0.9440    5.7160 hc        1 CLP      0.092125
    131 H49        -1.1720   -1.7890    5.6650 hc        1 CLP      0.092125
    132 H50        -2.6220   -2.5910    5.1460 hc        1 CLP      0.092125
    133 H51         2.5070   -2.1400    5.4870 hc        1 CLP      0.092125
    134 H52         0.9710   -1.3800    5.8680 hc        1 CLP      0.092125
    135 H53         2.4430   -0.4670    5.9780 hc        1 CLP      0.092125
    136 H54         4.5490   -1.2220    4.7530 hc        1 CLP      0.134973
    137 H55         4.1540    0.4720    4.9830 hc        1 CLP      0.134973
    138 H56         5.2460   -0.0030    3.7190 hc        1 CLP      0.134973
@<TRIPOS>BOND
     1    1    2 1   
     2    1    3 1   
     3    1    5 1   
     4    1   82 1   
     5    2    4 1   
     6    2    6 1   
     7    2   81 1   
     8    3    7 1   
     9    3   12 1   
    10    4    7 1   
    11    4   11 1   
    12    5    8 1   
    13    5   13 1   
    14    6    8 1   
    15    6   50 1   
    16    7    9 2   
    17    8   10 2   
    18   11   45 1   
    19   11   83 1   
    20   11   84 1   
    21   12   18 1   
    22   12   85 1   
    23   12   86 1   
    24   13   14 1   
    25   13   87 1   
    26   13   88 1   
    27   14   15 ar  
    28   14   18 ar  
    29   15   17 ar  
    30   15   24 1   
    31   16   18 ar  
    32   16   19 ar  
    33   16   25 1   
    34   17   19 ar  
    35   17   20 ar  
    36   19   23 ar  
    37   20   21 ar  
    38   20   89 1   
    39   21   22 ar  
    40   21   90 1   
    41   22   23 ar  
    42   22   91 1   
    43   23   92 1   
    44   24   26 1   
    45   25   29 1   
    46   26   27 1   
    47   26   93 1   
    48   26   94 1   
    49   27   28 1   
    50   27   95 1   
    51   27   96 1   
    52   28   32 1   
    53   28   97 1   
    54   28   98 1   
    55   29   30 1   
    56   29   99 1   
    57   29  100 1   
    58   30   31 1   
    59   30  101 1   
    60   30  102 1   
    61   31   35 1   
    62   31  103 1   
    63   31  104 1   
    64   32   33 1   
    65   32   34 1   
    66   32   38 1   
    67   35   36 1   
    68   35   37 1   
    69   35   39 1   
    70   40   41 1   
    71   40   42 1   
    72   40   44 1   
    73   40   79 1   
    74   41   43 1   
    75   41   45 1   
    76   41   80 1   
    77   42   46 1   
    78   42   51 1   
    79   43   46 1   
    80   43   50 1   
    81   44   47 1   
    82   44   52 1   
    83   45   47 1   
    84   46   48 2   
    85   47   49 2   
    86   50  105 1   
    87   50  106 1   
    88   51   57 1   
    89   51  107 1   
    90   51  108 1   
    91   52   53 1   
    92   52  109 1   
    93   52  110 1   
    94   53   54 ar  
    95   53   57 ar  
    96   54   56 ar  
    97   54   62 1   
    98   55   57 ar  
    99   55   58 ar  
   100   55   63 1   
   101   56   58 ar  
   102   56   78 ar  
   103   58   61 ar  
   104   59   60 ar  
   105   59   78 ar  
   106   59  111 1   
   107   60   61 ar  
   108   60  112 1   
   109   61  113 1   
   110   62   64 1   
   111   63   67 1   
   112   64   65 1   
   113   64  114 1   
   114   64  115 1   
   115   65   66 1   
   116   65  116 1   
   117   65  117 1   
   118   66   70 1   
   119   66  118 1   
   120   66  119 1   
   121   67   68 1   
   122   67  120 1   
   123   67  121 1   
   124   68   69 1   
   125   68  122 1   
   126   68  123 1   
   127   69   73 1   
   128   69  124 1   
   129   69  125 1   
   130   70   71 1   
   131   70   72 1   
   132   70   76 1   
   133   73   74 1   
   134   73   75 1   
   135   73   77 1   
   136   78  126 1   
   137   79  127 1   
   138   79  128 1   
   139   79  129 1   
   140   80  130 1   
   141   80  131 1   
   142   80  132 1   
   143   81  133 1   
   144   81  134 1   
   145   81  135 1   
   146   82  136 1   
   147   82  137 1   
   148   82  138 1   
@<TRIPOS>SUBSTRUCTURE
     1 CLP         1 TEMP              0 ****  ****    0 ROOT
