guest1

verachem
   32   34  0  0  0  0  0  0  0  0999 V2000
   -1.0220    0.8830   -0.5280 C   0  0  0  0  0  0  0  0  0  0  0  0
    1.0360   -0.8850    0.5000 C   0  0  0  0  0  0  0  0  0  0  0  0
   -1.1620   -0.4920   -0.5380 C   0  0  0  0  0  0  0  0  0  0  0  0
    1.1720    0.4910    0.5180 C   0  0  0  0  0  0  0  0  0  0  0  0
    0.1620    1.3620    0.0020 C   0  0  0  0  0  0  0  0  0  0  0  0
   -0.1430   -1.3640   -0.0400 C   0  0  0  0  0  0  0  0  0  0  0  0
   -1.8680   -2.6330   -0.7870 C   0  0  0  0  0  0  0  0  0  0  0  0
    1.8760    2.6310    0.7700 C   0  0  0  0  0  0  0  0  0  0  0  0
   -3.3680   -0.7630   -1.6640 C   0  0  0  0  0  0  0  0  0  0  0  0
    3.4570    0.7550    1.4740 C   0  0  0  0  0  0  0  0  0  0  0  0
   -0.2460    3.8120   -0.0030 C   0  0  0  0  0  0  0  0  0  0  0  0
    0.0520   -3.7980    0.4180 C   0  0  0  0  0  0  0  0  0  0  0  0
   -2.2280   -1.2980   -0.9650 N   0  3  0  0  0  0  0  0  0  0  0  0
    2.2060    1.2980    1.0130 N   0  0  0  0  0  0  0  0  0  0  0  0
    0.6330    2.6780    0.1390 N   0  3  0  0  0  0  0  0  0  0  0  0
   -0.5880   -2.6830   -0.2340 N   0  0  0  0  0  0  0  0  0  0  0  0
   -1.7540    1.5120   -0.8940 H   0  0  0  0  0  0  0  0  0  0  0  0
    1.7680   -1.5140    0.8660 H   0  0  0  0  0  0  0  0  0  0  0  0
   -3.3490    0.3060   -1.6130 H   0  0  0  0  0  0  0  0  0  0  0  0
   -4.2740   -1.1380   -1.2360 H   0  0  0  0  0  0  0  0  0  0  0  0
   -3.3270   -1.0670   -2.6890 H   0  0  0  0  0  0  0  0  0  0  0  0
    3.3760   -0.3090    1.5560 H   0  0  0  0  0  0  0  0  0  0  0  0
    3.7200    1.1800    2.4200 H   0  0  0  0  0  0  0  0  0  0  0  0
    4.2260    0.9950    0.7700 H   0  0  0  0  0  0  0  0  0  0  0  0
   -1.1240    3.5190   -0.5390 H   0  0  0  0  0  0  0  0  0  0  0  0
    0.2540    4.6060   -0.5170 H   0  0  0  0  0  0  0  0  0  0  0  0
   -0.5280    4.1620    0.9680 H   0  0  0  0  0  0  0  0  0  0  0  0
    1.0350   -3.5130    0.7310 H   0  0  0  0  0  0  0  0  0  0  0  0
    0.1030   -4.6350   -0.2460 H   0  0  0  0  0  0  0  0  0  0  0  0
   -0.5220   -4.0810    1.2760 H   0  0  0  0  0  0  0  0  0  0  0  0
   -2.4850   -3.4950   -1.0380 H   0  0  0  0  0  0  0  0  0  0  0  0
    2.4890    3.4940    1.0310 H   0  0  0  0  0  0  0  0  0  0  0  0
    1    3  2  0  0  0  0
    1    5  1  0  0  0  0
    1   17  1  0  0  0  0
    2    4  1  0  0  0  0
    2    6  2  0  0  0  0
    2   18  1  0  0  0  0
    3    6  1  0  0  0  0
    3   13  1  0  0  0  0
    4    5  2  0  0  0  0
    4   14  1  0  0  0  0
    5   15  1  0  0  0  0
    6   16  1  0  0  0  0
    7   13  2  0  0  0  0
    7   16  1  0  0  0  0
    7   31  1  0  0  0  0
    8   14  1  0  0  0  0
    8   15  2  0  0  0  0
    8   32  1  0  0  0  0
    9   13  1  0  0  0  0
    9   19  1  0  0  0  0
    9   20  1  0  0  0  0
    9   21  1  0  0  0  0
   10   14  1  0  0  0  0
   10   22  1  0  0  0  0
   10   23  1  0  0  0  0
   10   24  1  0  0  0  0
   11   15  1  0  0  0  0
   11   25  1  0  0  0  0
   11   26  1  0  0  0  0
   11   27  1  0  0  0  0
   12   16  1  0  0  0  0
   12   28  1  0  0  0  0
   12   29  1  0  0  0  0
   12   30  1  0  0  0  0
M  END
$$$$
guest2

verachem
   35   37  0  0  0  0  0  0  0  0999 V2000
   -0.5535   -0.6164   -1.3038 C   0  0  1  0  0  0  0  0  0  0  0  0
    0.5954    1.3931   -0.3013 C   0  0  2  0  0  0  0  0  0  0  0  0
    1.1015   -0.9170    0.5761 C   0  0  1  0  0  0  0  0  0  0  0  0
   -1.1435    0.1403    1.0290 C   0  0  2  0  0  0  0  0  0  0  0  0
    0.0417    0.7723   -1.5960 C   0  0  0  0  0  0  0  0  0  0  0  0
    0.5451   -1.5247   -0.7236 C   0  0  0  0  0  0  0  0  0  0  0  0
   -1.6873   -0.4734   -0.2732 C   0  0  0  0  0  0  0  0  0  0  0  0
    1.6873    0.4734    0.2732 C   0  0  0  0  0  0  0  0  0  0  0  0
   -0.5450    1.5247    0.7236 C   0  0  0  0  0  0  0  0  0  0  0  0
   -0.0418   -0.7723    1.5960 C   0  0  0  0  0  0  0  0  0  0  0  0
   -1.1052   -1.2309   -2.6037 C   0  0  0  0  0  0  0  0  0  0  0  0
    1.1812    2.7640   -0.5978 N   0  3  0  0  0  0  0  0  0  0  0  0
    2.1996   -1.8313    1.1505 C   0  0  0  0  0  0  0  0  0  0  0  0
   -1.9545    0.2398    1.7589 H   0  0  0  0  0  0  0  0  0  0  0  0
    0.8413    0.6875   -2.3422 H   0  0  0  0  0  0  0  0  0  0  0  0
   -0.7270    1.4263   -2.0258 H   0  0  0  0  0  0  0  0  0  0  0  0
    0.1384   -2.5241   -0.5254 H   0  0  0  0  0  0  0  0  0  0  0  0
    1.3532   -1.6488   -1.4549 H   0  0  0  0  0  0  0  0  0  0  0  0
   -2.4857    0.1592   -0.6803 H   0  0  0  0  0  0  0  0  0  0  0  0
   -2.1321   -1.4548   -0.0673 H   0  0  0  0  0  0  0  0  0  0  0  0
    2.5149    0.3834   -0.4411 H   0  0  0  0  0  0  0  0  0  0  0  0
    2.1028    0.9120    1.1887 H   0  0  0  0  0  0  0  0  0  0  0  0
   -0.1677    1.9815    1.6469 H   0  0  0  0  0  0  0  0  0  0  0  0
   -1.3238    2.1915    0.3335 H   0  0  0  0  0  0  0  0  0  0  0  0
   -0.4584   -1.7588    1.8337 H   0  0  0  0  0  0  0  0  0  0  0  0
    0.3441   -0.3550    2.5341 H   0  0  0  0  0  0  0  0  0  0  0  0
   -1.5255   -2.2140   -2.3916 H   0  0  0  0  0  0  0  0  0  0  0  0
   -0.2986   -1.3302   -3.3301 H   0  0  0  0  0  0  0  0  0  0  0  0
   -1.8825   -0.5841   -3.0106 H   0  0  0  0  0  0  0  0  0  0  0  0
    1.5647    3.1914    0.3050 H   0  0  0  0  0  0  0  0  0  0  0  0
    0.4184    3.3996   -0.9968 H   0  0  0  0  0  0  0  0  0  0  0  0
    1.9733    2.6674   -1.3106 H   0  0  0  0  0  0  0  0  0  0  0  0
    2.5904   -1.3968    2.0705 H   0  0  0  0  0  0  0  0  0  0  0  0
    3.0068   -1.9305    0.4247 H   0  0  0  0  0  0  0  0  0  0  0  0
    1.7800   -2.8145    1.3633 H   0  0  0  0  0  0  0  0  0  0  0  0
    1    5  1  0  0  0  0
    1    6  1  0  0  0  0
    1    7  1  0  0  0  0
    1   11  1  0  0  0  0
    2    5  1  0  0  0  0
    2    8  1  0  0  0  0
    2    9  1  0  0  0  0
    2   12  1  0  0  0  0
    3    6  1  0  0  0  0
    3    8  1  0  0  0  0
    3   10  1  0  0  0  0
    3   13  1  0  0  0  0
    4    7  1  0  0  0  0
    4    9  1  0  0  0  0
    4   10  1  0  0  0  0
    4   14  1  0  0  0  0
    5   15  1  0  0  0  0
    5   16  1  0  0  0  0
    6   17  1  0  0  0  0
    6   18  1  0  0  0  0
    7   19  1  0  0  0  0
    7   20  1  0  0  0  0
    8   21  1  0  0  0  0
    8   22  1  0  0  0  0
    9   23  1  0  0  0  0
    9   24  1  0  0  0  0
   10   25  1  0  0  0  0
   10   26  1  0  0  0  0
   11   27  1  0  0  0  0
   11   28  1  0  0  0  0
   11   29  1  0  0  0  0
   12   30  1  0  0  0  0
   12   31  1  0  0  0  0
   12   32  1  0  0  0  0
   13   33  1  0  0  0  0
   13   34  1  0  0  0  0
   13   35  1  0  0  0  0
M  END
$$$$
guest3

verachem
   38   40  0  0  0  0  0  0  0  0999 V2000
    3.0810    8.8680   17.7810 C   0  0  0  0  0  0  0  0  0  0  0  0
    2.6740    6.3250   16.3110 C   0  0  0  0  0  0  0  0  0  0  0  0
    1.8220    8.3840   17.4340 C   0  0  0  0  0  0  0  0  0  0  0  0
    3.9280    6.7730   16.7160 C   0  0  0  0  0  0  0  0  0  0  0  0
    4.1260    8.0150   17.4410 C   0  0  0  0  0  0  0  0  0  0  0  0
    1.6210    7.1470   16.7030 C   0  0  0  0  0  0  0  0  0  0  0  0
   -0.4070    8.0450   17.1890 C   0  0  0  0  0  0  0  0  0  0  0  0
    6.1360    6.9780   17.2270 C   0  0  0  0  0  0  0  0  0  0  0  0
    0.2940   10.0930   18.5720 C   0  0  0  0  0  0  0  0  0  0  0  0
    5.4720    4.8520   16.0290 C   0  0  0  0  0  0  0  0  0  0  0  0
    6.1290    9.1220   18.5720 C   0  0  0  0  0  0  0  0  0  0  0  0
   -0.4580    5.8700   15.9020 C   0  0  0  0  0  0  0  0  0  0  0  0
    0.5340    8.9050   17.7160 N   0  3  0  0  0  0  0  0  0  0  0  0
    5.2120    6.1790   16.5910 N   0  0  0  0  0  0  0  0  0  0  0  0
    5.5120    8.0970   17.7300 N   0  3  0  0  0  0  0  0  0  0  0  0
    0.2190    6.9910   16.5620 N   0  0  0  0  0  0  0  0  0  0  0  0
    3.2200    9.8390   18.2830 H   0  0  0  0  0  0  0  0  0  0  0  0
    2.5080    5.3960   15.7410 H   0  0  0  0  0  0  0  0  0  0  0  0
   -1.4960    8.1790   17.2530 H   0  0  0  0  0  0  0  0  0  0  0  0
    7.2090    6.7610   17.3090 H   0  0  0  0  0  0  0  0  0  0  0  0
   -1.0690   10.0180   19.2670 C   0  0  0  0  0  0  0  0  0  0  0  0
    0.3830   11.0100   17.9390 H   0  0  0  0  0  0  0  0  0  0  0  0
    1.1260   10.1510   19.3290 H   0  0  0  0  0  0  0  0  0  0  0  0
    4.9130    4.7090   15.0820 H   0  0  0  0  0  0  0  0  0  0  0  0
    5.1530    4.0630   16.7450 H   0  0  0  0  0  0  0  0  0  0  0  0
    6.5500    4.7020   15.8040 H   0  0  0  0  0  0  0  0  0  0  0  0
    5.5100    9.3000   19.4800 H   0  0  0  0  0  0  0  0  0  0  0  0
    6.2260   10.0830   18.0240 H   0  0  0  0  0  0  0  0  0  0  0  0
    7.1390    8.8170   18.9150 H   0  0  0  0  0  0  0  0  0  0  0  0
   -1.1380    5.3460   16.6040 H   0  0  0  0  0  0  0  0  0  0  0  0
   -1.0610    6.2200   15.0390 H   0  0  0  0  0  0  0  0  0  0  0  0
    0.2820    5.1270   15.5280 H   0  0  0  0  0  0  0  0  0  0  0  0
   -1.2570   11.2430   20.1530 C   0  0  0  0  0  0  0  0  0  0  0  0
   -1.8920    9.9620   18.5220 H   0  0  0  0  0  0  0  0  0  0  0  0
   -1.1500    9.0900   19.8720 H   0  0  0  0  0  0  0  0  0  0  0  0
   -2.2350   11.2240   20.6520 H   0  0  0  0  0  0  0  0  0  0  0  0
   -0.4910   11.3020   20.9370 H   0  0  0  0  0  0  0  0  0  0  0  0
   -1.2060   12.1750   19.5750 H   0  0  0  0  0  0  0  0  0  0  0  0
    1    3  2  0  0  0  0
    1    5  1  0  0  0  0
    1   17  1  0  0  0  0
    2    4  1  0  0  0  0
    2    6  2  0  0  0  0
    2   18  1  0  0  0  0
    3    6  1  0  0  0  0
    3   13  1  0  0  0  0
    4    5  2  0  0  0  0
    4   14  1  0  0  0  0
    5   15  1  0  0  0  0
    6   16  1  0  0  0  0
    7   13  2  0  0  0  0
    7   16  1  0  0  0  0
    7   19  1  0  0  0  0
    8   14  1  0  0  0  0
    8   15  2  0  0  0  0
    8   20  1  0  0  0  0
    9   13  1  0  0  0  0
    9   21  1  0  0  0  0
    9   22  1  0  0  0  0
    9   23  1  0  0  0  0
   10   14  1  0  0  0  0
   10   24  1  0  0  0  0
   10   25  1  0  0  0  0
   10   26  1  0  0  0  0
   11   15  1  0  0  0  0
   11   27  1  0  0  0  0
   11   28  1  0  0  0  0
   11   29  1  0  0  0  0
   12   16  1  0  0  0  0
   12   30  1  0  0  0  0
   12   31  1  0  0  0  0
   12   32  1  0  0  0  0
   21   33  1  0  0  0  0
   21   34  1  0  0  0  0
   21   35  1  0  0  0  0
   33   36  1  0  0  0  0
   33   37  1  0  0  0  0
   33   38  1  0  0  0  0
M  END
$$$$
guest4

verachem
   23   23  0  0  0  0  0  0  0  0999 V2000
   -0.2670    1.9640   -0.0810 C   0  0  0  0  0  0  0  0  0  0  0  0
    1.0440    1.8300    0.1100 C   0  0  0  0  0  0  0  0  0  0  0  0
    1.6240    0.4860    0.2550 C   0  0  0  0  0  0  0  0  0  0  0  0
    0.8420   -0.5900    0.1870 C   0  0  0  0  0  0  0  0  0  0  0  0
   -0.5980   -0.4360   -0.0290 C   0  0  0  0  0  0  0  0  0  0  0  0
   -1.1260    0.7800   -0.1570 C   0  0  0  0  0  0  0  0  0  0  0  0
   -1.4130   -1.5600   -0.1000 O   0  0  0  0  0  0  0  0  0  0  0  0
    1.3920   -1.8590    0.3230 O   0  0  0  0  0  0  0  0  0  0  0  0
    1.9120    3.0670    0.1930 C   0  0  0  0  0  0  0  0  0  0  0  0
    3.4170    2.7150    0.2820 C   0  0  0  0  0  0  0  0  0  0  0  0
    3.8660    2.0720   -0.9660 N   0  3  0  0  0  0  0  0  0  0  0  0
   -0.7020    2.9580   -0.1830 H   0  0  0  0  0  0  0  0  0  0  0  0
    2.6950    0.3700    0.4170 H   0  0  0  0  0  0  0  0  0  0  0  0
   -2.1980    0.8940   -0.3170 H   0  0  0  0  0  0  0  0  0  0  0  0
   -2.1360   -1.5170    0.6600 H   0  0  0  0  0  0  0  0  0  0  0  0
    0.9590   -2.3430    1.1480 H   0  0  0  0  0  0  0  0  0  0  0  0
    1.6310    3.6360    1.0800 H   0  0  0  0  0  0  0  0  0  0  0  0
    1.7450    3.6750   -0.6960 H   0  0  0  0  0  0  0  0  0  0  0  0
    3.5780    2.0320    1.1160 H   0  0  0  0  0  0  0  0  0  0  0  0
    3.9910    3.6280    0.4430 H   0  0  0  0  0  0  0  0  0  0  0  0
    4.9070    1.8350   -0.8910 H   0  0  0  0  0  0  0  0  0  0  0  0
    3.7120    2.7410   -1.7880 H   0  0  0  0  0  0  0  0  0  0  0  0
    3.3070    1.1750   -1.1280 H   0  0  0  0  0  0  0  0  0  0  0  0
   10   11  1  0  0  0  0
    9   10  1  0  0  0  0
    2    9  1  0  0  0  0
    4    8  1  0  0  0  0
    5    7  1  0  0  0  0
    6    1  1  0  0  0  0
    5    6  2  0  0  0  0
    4    5  1  0  0  0  0
    3    4  2  0  0  0  0
    2    3  1  0  0  0  0
    1    2  2  0  0  0  0
    1   12  1  0  0  0  0
    3   13  1  0  0  0  0
    6   14  1  0  0  0  0
    7   15  1  0  0  0  0
    8   16  1  0  0  0  0
    9   17  1  0  0  0  0
    9   18  1  0  0  0  0
   10   19  1  0  0  0  0
   10   20  1  0  0  0  0
   11   21  1  0  0  0  0
   11   22  1  0  0  0  0
   11   23  1  0  0  0  0
M  END
$$$$
guest5

verachem
   50   52  0  0  0  0  0  0  0  0999 V2000
   -0.5535   -0.6164   -1.3038 C   0  0  0  0  0  0  0  0  0  0  0  0
    0.5954    1.3931   -0.3013 C   0  0  2  0  0  0  0  0  0  0  0  0
    1.1015   -0.9170    0.5761 C   0  0  1  0  0  0  0  0  0  0  0  0
   -1.1435    0.1403    1.0290 C   0  0  0  0  0  0  0  0  0  0  0  0
    0.0417    0.7723   -1.5960 C   0  0  0  0  0  0  0  0  0  0  0  0
    0.5451   -1.5247   -0.7236 C   0  0  0  0  0  0  0  0  0  0  0  0
   -1.6873   -0.4734   -0.2732 C   0  0  0  0  0  0  0  0  0  0  0  0
    1.6873    0.4734    0.2732 C   0  0  0  0  0  0  0  0  0  0  0  0
   -0.5450    1.5247    0.7236 C   0  0  0  0  0  0  0  0  0  0  0  0
   -0.0418   -0.7723    1.5960 C   0  0  0  0  0  0  0  0  0  0  0  0
   -0.9440   -1.0513   -2.2238 H   0  0  0  0  0  0  0  0  0  0  0  0
    1.1812    2.7640   -0.5978 N   0  3  0  0  0  0  0  0  0  0  0  0
    2.1996   -1.8313    1.1505 N   0  3  0  0  0  0  0  0  0  0  0  0
   -1.9545    0.2398    1.7589 H   0  0  0  0  0  0  0  0  0  0  0  0
    0.8413    0.6875   -2.3422 H   0  0  0  0  0  0  0  0  0  0  0  0
   -0.7270    1.4263   -2.0258 H   0  0  0  0  0  0  0  0  0  0  0  0
    0.1384   -2.5241   -0.5254 H   0  0  0  0  0  0  0  0  0  0  0  0
    1.3532   -1.6488   -1.4549 H   0  0  0  0  0  0  0  0  0  0  0  0
   -2.4857    0.1592   -0.6803 H   0  0  0  0  0  0  0  0  0  0  0  0
   -2.1321   -1.4548   -0.0673 H   0  0  0  0  0  0  0  0  0  0  0  0
    2.5149    0.3834   -0.4411 H   0  0  0  0  0  0  0  0  0  0  0  0
    2.1028    0.9120    1.1887 H   0  0  0  0  0  0  0  0  0  0  0  0
   -0.1677    1.9815    1.6469 H   0  0  0  0  0  0  0  0  0  0  0  0
   -1.3238    2.1915    0.3335 H   0  0  0  0  0  0  0  0  0  0  0  0
   -0.4584   -1.7588    1.8337 H   0  0  0  0  0  0  0  0  0  0  0  0
    0.3441   -0.3550    2.5341 H   0  0  0  0  0  0  0  0  0  0  0  0
    1.7260    3.3712    0.6848 C   0  0  0  0  0  0  0  0  0  0  0  0
    0.0977    3.6669   -1.1645 C   0  0  0  0  0  0  0  0  0  0  0  0
    2.3064    2.6267   -1.6104 C   0  0  0  0  0  0  0  0  0  0  0  0
    2.7446   -1.2253    2.4335 C   0  0  0  0  0  0  0  0  0  0  0  0
    3.3252   -1.9697    0.1384 C   0  0  0  0  0  0  0  0  0  0  0  0
    1.6144   -3.2023    1.4472 C   0  0  0  0  0  0  0  0  0  0  0  0
    2.1460    4.3542    0.4721 H   0  0  0  0  0  0  0  0  0  0  0  0
    2.5036    2.7247    1.0917 H   0  0  0  0  0  0  0  0  0  0  0  0
    0.9196    3.4706    1.4114 H   0  0  0  0  0  0  0  0  0  0  0  0
    0.5177    4.6500   -1.3772 H   0  0  0  0  0  0  0  0  0  0  0  0
   -0.7094    3.7665   -0.4387 H   0  0  0  0  0  0  0  0  0  0  0  0
   -0.2933    3.2327   -2.0847 H   0  0  0  0  0  0  0  0  0  0  0  0
    2.7265    3.6098   -1.8230 H   0  0  0  0  0  0  0  0  0  0  0  0
    1.9166    2.1920   -2.5308 H   0  0  0  0  0  0  0  0  0  0  0  0
    3.0843    1.9799   -1.2045 H   0  0  0  0  0  0  0  0  0  0  0  0
    3.5218   -1.8724    2.8400 H   0  0  0  0  0  0  0  0  0  0  0  0
    1.9382   -1.1262    3.1602 H   0  0  0  0  0  0  0  0  0  0  0  0
    3.1651   -0.2422    2.2217 H   0  0  0  0  0  0  0  0  0  0  0  0
    4.1025   -2.6167    0.5449 H   0  0  0  0  0  0  0  0  0  0  0  0
    3.7460   -0.9869   -0.0745 H   0  0  0  0  0  0  0  0  0  0  0  0
    2.9356   -2.4047   -0.7819 H   0  0  0  0  0  0  0  0  0  0  0  0
    2.3916   -3.8494    1.8537 H   0  0  0  0  0  0  0  0  0  0  0  0
    1.2239   -3.6381    0.5275 H   0  0  0  0  0  0  0  0  0  0  0  0
    0.8075   -3.1041    2.1734 H   0  0  0  0  0  0  0  0  0  0  0  0
    1    5  1  0  0  0  0
    1    6  1  0  0  0  0
    1    7  1  0  0  0  0
    1   11  1  0  0  0  0
    2    5  1  0  0  0  0
    2    8  1  0  0  0  0
    2    9  1  0  0  0  0
    2   12  1  0  0  0  0
    3    6  1  0  0  0  0
    3    8  1  0  0  0  0
    3   10  1  0  0  0  0
    3   13  1  0  0  0  0
    4    7  1  0  0  0  0
    4    9  1  0  0  0  0
    4   10  1  0  0  0  0
    4   14  1  0  0  0  0
    5   15  1  0  0  0  0
    5   16  1  0  0  0  0
    6   17  1  0  0  0  0
    6   18  1  0  0  0  0
    7   19  1  0  0  0  0
    7   20  1  0  0  0  0
    8   21  1  0  0  0  0
    8   22  1  0  0  0  0
    9   23  1  0  0  0  0
    9   24  1  0  0  0  0
   10   25  1  0  0  0  0
   10   26  1  0  0  0  0
   12   27  1  0  0  0  0
   12   28  1  0  0  0  0
   12   29  1  0  0  0  0
   13   30  1  0  0  0  0
   13   31  1  0  0  0  0
   13   32  1  0  0  0  0
   27   33  1  0  0  0  0
   27   34  1  0  0  0  0
   27   35  1  0  0  0  0
   28   36  1  0  0  0  0
   28   37  1  0  0  0  0
   28   38  1  0  0  0  0
   29   39  1  0  0  0  0
   29   40  1  0  0  0  0
   29   41  1  0  0  0  0
   30   42  1  0  0  0  0
   30   43  1  0  0  0  0
   30   44  1  0  0  0  0
   31   45  1  0  0  0  0
   31   46  1  0  0  0  0
   31   47  1  0  0  0  0
   32   48  1  0  0  0  0
   32   49  1  0  0  0  0
   32   50  1  0  0  0  0
M  END
$$$$
guest6

verachem
   18   18  0  0  0  0  0  0  0  0999 V2000
   -0.0730    1.8210    0.3160 C   0  0  0  0  0  0  0  0  0  0  0  0
    1.2380    1.7790    0.0840 C   0  0  0  0  0  0  0  0  0  0  0  0
    1.8830    0.5060   -0.2460 C   0  0  0  0  0  0  0  0  0  0  0  0
    1.1590   -0.6100   -0.3140 C   0  0  0  0  0  0  0  0  0  0  0  0
   -0.2840   -0.5640   -0.0580 C   0  0  0  0  0  0  0  0  0  0  0  0
   -0.8700    0.5940    0.2420 C   0  0  0  0  0  0  0  0  0  0  0  0
    2.0150    2.9780    0.1570 N   0  3  0  0  0  0  0  0  0  0  0  0
   -0.7020    3.0640    0.6390 N   0  3  0  0  0  0  0  0  0  0  0  0
    2.9560    0.4720   -0.4360 H   0  0  0  0  0  0  0  0  0  0  0  0
    1.6390   -1.5570   -0.5590 H   0  0  0  0  0  0  0  0  0  0  0  0
   -0.8760   -1.4770   -0.1130 H   0  0  0  0  0  0  0  0  0  0  0  0
   -1.9430    0.6280    0.4320 H   0  0  0  0  0  0  0  0  0  0  0  0
    1.3790    3.8010    0.4080 H   0  0  0  0  0  0  0  0  0  0  0  0
    2.4780    3.1610   -0.7900 H   0  0  0  0  0  0  0  0  0  0  0  0
    2.7700    2.8690    0.9080 H   0  0  0  0  0  0  0  0  0  0  0  0
    0.0310    3.8440    0.6470 H   0  0  0  0  0  0  0  0  0  0  0  0
   -1.1590    2.9940    1.6040 H   0  0  0  0  0  0  0  0  0  0  0  0
   -1.4500    3.2870   -0.0940 H   0  0  0  0  0  0  0  0  0  0  0  0
    1    8  1  0  0  0  0
    2    7  1  0  0  0  0
    6    1  1  0  0  0  0
    5    6  2  0  0  0  0
    4    5  1  0  0  0  0
    3    4  2  0  0  0  0
    2    3  1  0  0  0  0
    1    2  2  0  0  0  0
    3    9  1  0  0  0  0
    4   10  1  0  0  0  0
    5   11  1  0  0  0  0
    6   12  1  0  0  0  0
    7   13  1  0  0  0  0
    7   14  1  0  0  0  0
    7   15  1  0  0  0  0
    8   16  1  0  0  0  0
    8   17  1  0  0  0  0
    8   18  1  0  0  0  0
M  END
$$$$
guest7

verachem
   18   18  0  0  0  0  0  0  0  0999 V2000
   -0.0440    1.9750   -0.0010 C   0  0  0  0  0  0  0  0  0  0  0  0
    1.2860    1.9010   -0.0040 C   0  0  0  0  0  0  0  0  0  0  0  0
    1.9470    0.5930   -0.0020 C   0  0  0  0  0  0  0  0  0  0  0  0
    1.2180   -0.5220    0.0020 C   0  0  0  0  0  0  0  0  0  0  0  0
   -0.2450   -0.4410    0.0050 C   0  0  0  0  0  0  0  0  0  0  0  0
   -0.8460    0.7480    0.0040 C   0  0  0  0  0  0  0  0  0  0  0  0
   -2.2740    0.8280    0.0070 N   0  3  0  0  0  0  0  0  0  0  0  0
    2.0680    3.0980   -0.0080 N   0  3  0  0  0  0  0  0  0  0  0  0
   -0.5360    2.9470   -0.0020 H   0  0  0  0  0  0  0  0  0  0  0  0
    3.0350    0.5330   -0.0040 H   0  0  0  0  0  0  0  0  0  0  0  0
    1.7100   -1.4950    0.0030 H   0  0  0  0  0  0  0  0  0  0  0  0
   -0.8420   -1.3530    0.0090 H   0  0  0  0  0  0  0  0  0  0  0  0
   -2.6870   -0.1600    0.0100 H   0  0  0  0  0  0  0  0  0  0  0  0
   -2.6050    1.3490   -0.8670 H   0  0  0  0  0  0  0  0  0  0  0  0
   -2.6010    1.3530    0.8800 H   0  0  0  0  0  0  0  0  0  0  0  0
    1.4200    3.9490   -0.0090 H   0  0  0  0  0  0  0  0  0  0  0  0
    2.6840    3.1190   -0.8830 H   0  0  0  0  0  0  0  0  0  0  0  0
    2.6880    3.1230    0.8640 H   0  0  0  0  0  0  0  0  0  0  0  0
    2    8  1  0  0  0  0
    6    7  1  0  0  0  0
    6    1  1  0  0  0  0
    5    6  2  0  0  0  0
    4    5  1  0  0  0  0
    3    4  2  0  0  0  0
    2    3  1  0  0  0  0
    1    2  2  0  0  0  0
    1    9  1  0  0  0  0
    3   10  1  0  0  0  0
    4   11  1  0  0  0  0
    5   12  1  0  0  0  0
    7   13  1  0  0  0  0
    7   14  1  0  0  0  0
    7   15  1  0  0  0  0
    8   16  1  0  0  0  0
    8   17  1  0  0  0  0
    8   18  1  0  0  0  0
M  END
$$$$
guest8

verachem
   50   52  0  0  0  0  0  0  0  0999 V2000
   -1.0220    0.8830   -0.5280 C   0  0  0  0  0  0  0  0  0  0  0  0
    1.0360   -0.8850    0.5000 C   0  0  0  0  0  0  0  0  0  0  0  0
   -1.1620   -0.4920   -0.5380 C   0  0  0  0  0  0  0  0  0  0  0  0
    1.1720    0.4910    0.5180 C   0  0  0  0  0  0  0  0  0  0  0  0
    0.1620    1.3620    0.0020 C   0  0  0  0  0  0  0  0  0  0  0  0
   -0.1430   -1.3640   -0.0400 C   0  0  0  0  0  0  0  0  0  0  0  0
   -1.8680   -2.6330   -0.7870 C   0  0  0  0  0  0  0  0  0  0  0  0
    1.8760    2.6310    0.7700 C   0  0  0  0  0  0  0  0  0  0  0  0
   -4.5060   -5.3490   -0.1940 C   0  0  0  0  0  0  0  0  0  0  0  0
    3.1900    5.4520    3.0080 C   0  0  0  0  0  0  0  0  0  0  0  0
   -3.3680   -0.7630   -1.6640 C   0  0  0  0  0  0  0  0  0  0  0  0
    3.4570    0.7550    1.4740 C   0  0  0  0  0  0  0  0  0  0  0  0
   -0.2460    3.8120   -0.0030 C   0  0  0  0  0  0  0  0  0  0  0  0
    0.0520   -3.7980    0.4180 C   0  0  0  0  0  0  0  0  0  0  0  0
   -2.7300   -3.8160   -1.1020 C   0  0  0  0  0  0  0  0  0  0  0  0
    2.7040    3.8180    1.1580 C   0  0  0  0  0  0  0  0  0  0  0  0
   -3.6160   -4.1520    0.0930 C   0  0  0  0  0  0  0  0  0  0  0  0
    2.3660    4.2490    2.5810 C   0  0  0  0  0  0  0  0  0  0  0  0
   -2.2280   -1.2980   -0.9650 N   0  3  0  0  0  0  0  0  0  0  0  0
    2.2060    1.2980    1.0130 N   0  0  0  0  0  0  0  0  0  0  0  0
    0.6330    2.6780    0.1390 N   0  3  0  0  0  0  0  0  0  0  0  0
   -0.5880   -2.6830   -0.2340 N   0  0  0  0  0  0  0  0  0  0  0  0
   -1.7540    1.5120   -0.8940 H   0  0  0  0  0  0  0  0  0  0  0  0
    1.7680   -1.5140    0.8660 H   0  0  0  0  0  0  0  0  0  0  0  0
   -5.1140   -5.5560    0.6620 H   0  0  0  0  0  0  0  0  0  0  0  0
   -3.9110   -6.2030   -0.4410 H   0  0  0  0  0  0  0  0  0  0  0  0
   -5.1390   -5.1260   -1.0280 H   0  0  0  0  0  0  0  0  0  0  0  0
    2.9280    5.7270    4.0080 H   0  0  0  0  0  0  0  0  0  0  0  0
    3.0220    6.2720    2.3420 H   0  0  0  0  0  0  0  0  0  0  0  0
    4.2290    5.1970    2.9740 H   0  0  0  0  0  0  0  0  0  0  0  0
   -3.3490    0.3060   -1.6130 H   0  0  0  0  0  0  0  0  0  0  0  0
   -4.2740   -1.1380   -1.2360 H   0  0  0  0  0  0  0  0  0  0  0  0
   -3.3270   -1.0670   -2.6890 H   0  0  0  0  0  0  0  0  0  0  0  0
    3.3760   -0.3090    1.5560 H   0  0  0  0  0  0  0  0  0  0  0  0
    3.7200    1.1800    2.4200 H   0  0  0  0  0  0  0  0  0  0  0  0
    4.2260    0.9950    0.7700 H   0  0  0  0  0  0  0  0  0  0  0  0
   -1.1240    3.5190   -0.5390 H   0  0  0  0  0  0  0  0  0  0  0  0
    0.2540    4.6060   -0.5170 H   0  0  0  0  0  0  0  0  0  0  0  0
   -0.5280    4.1620    0.9680 H   0  0  0  0  0  0  0  0  0  0  0  0
    1.0350   -3.5130    0.7310 H   0  0  0  0  0  0  0  0  0  0  0  0
    0.1030   -4.6350   -0.2460 H   0  0  0  0  0  0  0  0  0  0  0  0
   -0.5220   -4.0810    1.2760 H   0  0  0  0  0  0  0  0  0  0  0  0
   -2.1200   -4.6580   -1.3560 H   0  0  0  0  0  0  0  0  0  0  0  0
   -3.3530   -3.5770   -1.9380 H   0  0  0  0  0  0  0  0  0  0  0  0
    2.5320    4.6250    0.4770 H   0  0  0  0  0  0  0  0  0  0  0  0
    3.7380    3.5460    1.1160 H   0  0  0  0  0  0  0  0  0  0  0  0
   -3.0110   -4.3450    0.9530 H   0  0  0  0  0  0  0  0  0  0  0  0
   -4.2480   -3.3090    0.2810 H   0  0  0  0  0  0  0  0  0  0  0  0
    1.3230    4.4780    2.6550 H   0  0  0  0  0  0  0  0  0  0  0  0
    2.6020    3.4380    3.2370 H   0  0  0  0  0  0  0  0  0  0  0  0
    1    3  2  0  0  0  0
    1    5  1  0  0  0  0
    1   23  1  0  0  0  0
    2    4  1  0  0  0  0
    2    6  2  0  0  0  0
    2   24  1  0  0  0  0
    3    6  1  0  0  0  0
    3   19  1  0  0  0  0
    4    5  2  0  0  0  0
    4   20  1  0  0  0  0
    5   21  1  0  0  0  0
    6   22  1  0  0  0  0
    7   15  1  0  0  0  0
    7   19  2  0  0  0  0
    7   22  1  0  0  0  0
    8   16  1  0  0  0  0
    8   20  1  0  0  0  0
    8   21  2  0  0  0  0
    9   17  1  0  0  0  0
    9   25  1  0  0  0  0
    9   26  1  0  0  0  0
    9   27  1  0  0  0  0
   10   18  1  0  0  0  0
   10   28  1  0  0  0  0
   10   29  1  0  0  0  0
   10   30  1  0  0  0  0
   11   19  1  0  0  0  0
   11   31  1  0  0  0  0
   11   32  1  0  0  0  0
   11   33  1  0  0  0  0
   12   20  1  0  0  0  0
   12   34  1  0  0  0  0
   12   35  1  0  0  0  0
   12   36  1  0  0  0  0
   13   21  1  0  0  0  0
   13   37  1  0  0  0  0
   13   38  1  0  0  0  0
   13   39  1  0  0  0  0
   14   22  1  0  0  0  0
   14   40  1  0  0  0  0
   14   41  1  0  0  0  0
   14   42  1  0  0  0  0
   15   17  1  0  0  0  0
   15   43  1  0  0  0  0
   15   44  1  0  0  0  0
   16   18  1  0  0  0  0
   16   45  1  0  0  0  0
   16   46  1  0  0  0  0
   17   47  1  0  0  0  0
   17   48  1  0  0  0  0
   18   49  1  0  0  0  0
   18   50  1  0  0  0  0
M  END
$$$$
guest9

verachem
   18   18  0  0  0  0  0  0  0  0999 V2000
   -7.3610   -2.9800    0.0000 C   0  0  0  0  0  0  0  0  0  0  0  0
   -6.1910   -2.3220    0.0000 N   0  3  0  0  0  0  0  0  0  0  0  0
   -7.4030   -4.3830    0.0000 C   0  0  0  0  0  0  0  0  0  0  0  0
   -6.2800   -6.6410    0.0000 C   0  0  0  0  0  0  0  0  0  0  0  0
   -4.9270   -7.3020    0.0000 N   0  3  0  0  0  0  0  0  0  0  0  0
   -6.2110   -5.1190    0.0000 C   0  0  0  0  0  0  0  0  0  0  0  0
   -5.0020   -4.4020    0.0000 C   0  0  0  0  0  0  0  0  0  0  0  0
   -5.0300   -2.9970    0.0000 C   0  0  0  0  0  0  0  0  0  0  0  0
   -8.2820   -2.4160    0.0000 H   0  0  0  0  0  0  0  0  0  0  0  0
   -6.1830   -1.2520    0.0000 H   0  0  0  0  0  0  0  0  0  0  0  0
   -8.3560   -4.8920    0.0000 H   0  0  0  0  0  0  0  0  0  0  0  0
   -6.8360   -6.9600   -0.8820 H   0  0  0  0  0  0  0  0  0  0  0  0
   -6.8360   -6.9600    0.8820 H   0  0  0  0  0  0  0  0  0  0  0  0
   -5.0490   -8.3650    0.0000 H   0  0  0  0  0  0  0  0  0  0  0  0
   -4.3850   -7.0060    0.8740 H   0  0  0  0  0  0  0  0  0  0  0  0
   -4.3850   -7.0060   -0.8740 H   0  0  0  0  0  0  0  0  0  0  0  0
   -4.0410   -4.8930    0.0000 H   0  0  0  0  0  0  0  0  0  0  0  0
   -4.1020   -2.4450    0.0000 H   0  0  0  0  0  0  0  0  0  0  0  0
    1    2  2  0  0  0  0
    1    3  1  0  0  0  0
    1    9  1  0  0  0  0
    2    8  1  0  0  0  0
    2   10  1  0  0  0  0
    3    6  2  0  0  0  0
    3   11  1  0  0  0  0
    4    5  1  0  0  0  0
    4    6  1  0  0  0  0
    4   12  1  0  0  0  0
    4   13  1  0  0  0  0
    5   14  1  0  0  0  0
    5   15  1  0  0  0  0
    5   16  1  0  0  0  0
    6    7  1  0  0  0  0
    7    8  2  0  0  0  0
    7   17  1  0  0  0  0
    8   18  1  0  0  0  0
M  END
$$$$
guest10

verachem
   24   24  0  0  0  0  0  0  0  0999 V2000
    1.3280    6.8790   16.5650 C   0  0  0  0  0  0  0  0  0  0  0  0
    0.4100    7.7210   16.4960 O   0  0  0  0  0  0  0  0  0  0  0  0
    1.1920    5.6480   16.3600 O   0  0  0  0  0  0  0  0  0  0  0  0
    2.7630    7.2550   16.8760 C   0  0  2  0  0  0  0  0  0  0  0  0
    3.2400    7.1530   15.5070 N   0  3  0  0  0  0  0  0  0  0  0  0
    3.4730    6.2520   17.7950 C   0  0  0  0  0  0  0  0  0  0  0  0
    7.7750    6.7050   17.9250 C   0  0  0  0  0  0  0  0  0  0  0  0
    6.9470    7.6740   18.5080 C   0  0  0  0  0  0  0  0  0  0  0  0
    5.5520    7.5240   18.4670 C   0  0  0  0  0  0  0  0  0  0  0  0
    4.9790    6.4070   17.8400 C   0  0  0  0  0  0  0  0  0  0  0  0
    7.2060    5.5850   17.3020 C   0  0  0  0  0  0  0  0  0  0  0  0
    5.8110    5.4350   17.2600 C   0  0  0  0  0  0  0  0  0  0  0  0
    0.7910    5.6140   15.4560 H   0  0  0  0  0  0  0  0  0  0  0  0
    2.9150    8.2040   17.4110 H   0  0  0  0  0  0  0  0  0  0  0  0
    2.8590    7.8510   14.8530 H   0  0  0  0  0  0  0  0  0  0  0  0
    3.2350    6.2040   15.1060 H   0  0  0  0  0  0  0  0  0  0  0  0
    4.2380    7.3930   15.5870 H   0  0  0  0  0  0  0  0  0  0  0  0
    3.2330    5.2320   17.4610 H   0  0  0  0  0  0  0  0  0  0  0  0
    3.0760    6.3630   18.8150 H   0  0  0  0  0  0  0  0  0  0  0  0
    8.8690    6.8220   17.9550 H   0  0  0  0  0  0  0  0  0  0  0  0
    7.3910    8.5520   18.9990 H   0  0  0  0  0  0  0  0  0  0  0  0
    4.9060    8.2860   18.9280 H   0  0  0  0  0  0  0  0  0  0  0  0
    7.8540    4.8220   16.8450 H   0  0  0  0  0  0  0  0  0  0  0  0
    5.3690    4.5540   16.7720 H   0  0  0  0  0  0  0  0  0  0  0  0
    1    2  2  0  0  0  0
    1    3  1  0  0  0  0
    1    4  1  0  0  0  0
    3   13  1  0  0  0  0
    4    5  1  0  0  0  0
    4    6  1  0  0  0  0
    4   14  1  0  0  0  0
    5   15  1  0  0  0  0
    5   16  1  0  0  0  0
    5   17  1  0  0  0  0
    6   10  1  0  0  0  0
    6   18  1  0  0  0  0
    6   19  1  0  0  0  0
    7    8  2  0  0  0  0
    7   11  1  0  0  0  0
    7   20  1  0  0  0  0
    8    9  1  0  0  0  0
    8   21  1  0  0  0  0
    9   10  2  0  0  0  0
    9   22  1  0  0  0  0
   10   12  1  0  0  0  0
   11   12  2  0  0  0  0
   11   23  1  0  0  0  0
   12   24  1  0  0  0  0
M  END
$$$$
guest11

verachem
   18   18  0  0  0  0  0  0  0  0999 V2000
   -3.6740   -1.1450    0.0000 C   0  0  0  0  0  0  0  0  0  0  0  0
   -3.6740    0.2840    0.0000 N   0  3  0  0  0  0  0  0  0  0  0  0
   -4.9120   -1.8590    0.0000 C   0  0  0  0  0  0  0  0  0  0  0  0
   -4.9120   -3.2880    0.0000 C   0  0  0  0  0  0  0  0  0  0  0  0
   -3.6740   -4.0020    0.0000 C   0  0  0  0  0  0  0  0  0  0  0  0
   -3.6740   -5.4310    0.0000 N   0  3  0  0  0  0  0  0  0  0  0  0
   -2.4370   -3.2880    0.0000 C   0  0  0  0  0  0  0  0  0  0  0  0
   -2.4370   -1.8590    0.0000 C   0  0  0  0  0  0  0  0  0  0  0  0
   -4.6830    0.6410    0.0000 H   0  0  0  0  0  0  0  0  0  0  0  0
   -3.1700    0.6410   -0.8740 H   0  0  0  0  0  0  0  0  0  0  0  0
   -5.8470   -1.3190    0.0000 H   0  0  0  0  0  0  0  0  0  0  0  0
   -5.8470   -3.8280    0.0000 H   0  0  0  0  0  0  0  0  0  0  0  0
   -2.7220   -5.7680    0.0000 H   0  0  0  0  0  0  0  0  0  0  0  0
   -4.1500   -5.7680    0.8250 H   0  0  0  0  0  0  0  0  0  0  0  0
   -4.1500   -5.7680   -0.8250 H   0  0  0  0  0  0  0  0  0  0  0  0
   -1.5020   -3.8280    0.0000 H   0  0  0  0  0  0  0  0  0  0  0  0
   -1.5020   -1.3190    0.0000 H   0  0  0  0  0  0  0  0  0  0  0  0
   -3.1700    0.6410    0.8740 H   0  0  0  0  0  0  0  0  0  0  0  0
    1    2  1  0  0  0  0
    1    8  2  0  0  0  0
    1    3  1  0  0  0  0
    2    9  1  0  0  0  0
    2   10  1  0  0  0  0
    3    4  2  0  0  0  0
    3   11  1  0  0  0  0
    4    5  1  0  0  0  0
    4   12  1  0  0  0  0
    5    6  1  0  0  0  0
    5    7  2  0  0  0  0
    6   13  1  0  0  0  0
    6   14  1  0  0  0  0
    6   15  1  0  0  0  0
    7    8  1  0  0  0  0
    7   16  1  0  0  0  0
    8   17  1  0  0  0  0
    2   18  1  0  0  0  0
M  END
$$$$
guest12

verachem
   18   18  0  0  0  0  0  0  0  0999 V2000
   -0.3930   -1.3060    0.0000 C   0  0  0  0  0  0  0  0  0  0  0  0
   -0.3930    0.1230    0.0000 N   0  3  0  0  0  0  0  0  0  0  0  0
   -1.6300   -2.0200    0.0000 C   0  0  0  0  0  0  0  0  0  0  0  0
   -1.6300   -3.4480    0.0000 C   0  0  0  0  0  0  0  0  0  0  0  0
   -0.3930   -4.1630    0.0000 C   0  0  0  0  0  0  0  0  0  0  0  0
   -0.3930   -5.5910    0.0000 C   0  0  0  0  0  0  0  0  0  0  0  0
    0.8440   -3.4480    0.0000 C   0  0  0  0  0  0  0  0  0  0  0  0
    0.8440   -2.0200    0.0000 C   0  0  0  0  0  0  0  0  0  0  0  0
   -1.3450    0.4600    0.0000 H   0  0  0  0  0  0  0  0  0  0  0  0
    0.0830    0.4600    0.8250 H   0  0  0  0  0  0  0  0  0  0  0  0
    0.0830    0.4600   -0.8250 H   0  0  0  0  0  0  0  0  0  0  0  0
   -2.5650   -1.4800    0.0000 H   0  0  0  0  0  0  0  0  0  0  0  0
   -2.5650   -3.9890    0.0000 H   0  0  0  0  0  0  0  0  0  0  0  0
    0.6350   -5.9550    0.0000 H   0  0  0  0  0  0  0  0  0  0  0  0
   -0.9070   -5.9550    0.8900 H   0  0  0  0  0  0  0  0  0  0  0  0
   -0.9070   -5.9550   -0.8900 H   0  0  0  0  0  0  0  0  0  0  0  0
    1.7800   -3.9890    0.0000 H   0  0  0  0  0  0  0  0  0  0  0  0
    1.7800   -1.4800    0.0000 H   0  0  0  0  0  0  0  0  0  0  0  0
    1    2  1  0  0  0  0
    1    8  2  0  0  0  0
    1    3  1  0  0  0  0
    2    9  1  0  0  0  0
    2   10  1  0  0  0  0
    2   11  1  0  0  0  0
    3    4  2  0  0  0  0
    3   12  1  0  0  0  0
    4    5  1  0  0  0  0
    4   13  1  0  0  0  0
    5    6  1  0  0  0  0
    5    7  2  0  0  0  0
    6   14  1  0  0  0  0
    6   15  1  0  0  0  0
    6   16  1  0  0  0  0
    7    8  1  0  0  0  0
    7   17  1  0  0  0  0
    8   18  1  0  0  0  0
M  END
$$$$
guest13

verachem
   28   29  0  0  0  0  0  0  0  0999 V2000
   -1.1010   -0.2590    0.0000 C   0  0  0  0  0  0  0  0  0  0  0  0
   -2.3010    0.4740    0.0000 C   0  0  0  0  0  0  0  0  0  0  0  0
    0.0920    0.4830    0.0000 C   0  0  0  0  0  0  0  0  0  0  0  0
    0.0520    1.8850    0.0000 C   0  0  0  0  0  0  0  0  0  0  0  0
   -1.1120    2.5520    0.0000 N   0  3  0  0  0  0  0  0  0  0  0  0
   -1.0990    4.0000    0.0000 C   0  0  0  0  0  0  0  0  0  0  0  0
   -2.2730    1.8770    0.0000 C   0  0  0  0  0  0  0  0  0  0  0  0
   -1.0970   -1.7740    0.0000 C   0  0  0  0  0  0  0  0  0  0  0  0
   -2.2920   -2.5130    0.0000 C   0  0  0  0  0  0  0  0  0  0  0  0
   -2.2540   -3.9160    0.0000 C   0  0  0  0  0  0  0  0  0  0  0  0
   -1.0920   -4.5850    0.0000 N   0  3  0  0  0  0  0  0  0  0  0  0
   -1.1080   -6.0330    0.0000 C   0  0  0  0  0  0  0  0  0  0  0  0
    0.0700   -3.9120    0.0000 C   0  0  0  0  0  0  0  0  0  0  0  0
    0.1000   -2.5090    0.0000 C   0  0  0  0  0  0  0  0  0  0  0  0
   -3.2690    0.0010    0.0000 H   0  0  0  0  0  0  0  0  0  0  0  0
    1.0630    0.0160    0.0000 H   0  0  0  0  0  0  0  0  0  0  0  0
    0.9760    2.4410    0.0000 H   0  0  0  0  0  0  0  0  0  0  0  0
   -2.1150    4.3930    0.0000 H   0  0  0  0  0  0  0  0  0  0  0  0
   -0.5770    4.3550    0.8890 H   0  0  0  0  0  0  0  0  0  0  0  0
   -0.5770    4.3550   -0.8890 H   0  0  0  0  0  0  0  0  0  0  0  0
   -3.2070    2.4160    0.0000 H   0  0  0  0  0  0  0  0  0  0  0  0
   -3.2630   -2.0470    0.0000 H   0  0  0  0  0  0  0  0  0  0  0  0
   -3.1800   -4.4700    0.0000 H   0  0  0  0  0  0  0  0  0  0  0  0
   -0.0930   -6.4280    0.0000 H   0  0  0  0  0  0  0  0  0  0  0  0
   -1.6300   -6.3870    0.8890 H   0  0  0  0  0  0  0  0  0  0  0  0
   -1.6300   -6.3870   -0.8890 H   0  0  0  0  0  0  0  0  0  0  0  0
    1.0030   -4.4530    0.0000 H   0  0  0  0  0  0  0  0  0  0  0  0
    1.0690   -2.0370    0.0000 H   0  0  0  0  0  0  0  0  0  0  0  0
    1    2  2  0  0  0  0
    1    3  1  0  0  0  0
    1    8  1  0  0  0  0
    2    7  1  0  0  0  0
    2   15  1  0  0  0  0
    3    4  2  0  0  0  0
    3   16  1  0  0  0  0
    4    5  1  0  0  0  0
    4   17  1  0  0  0  0
    5    6  1  0  0  0  0
    5    7  2  0  0  0  0
    6   18  1  0  0  0  0
    6   19  1  0  0  0  0
    6   20  1  0  0  0  0
    7   21  1  0  0  0  0
    8   14  2  0  0  0  0
    8    9  1  0  0  0  0
    9   10  2  0  0  0  0
    9   22  1  0  0  0  0
   10   11  1  0  0  0  0
   10   23  1  0  0  0  0
   11   12  1  0  0  0  0
   11   13  2  0  0  0  0
   12   24  1  0  0  0  0
   12   25  1  0  0  0  0
   12   26  1  0  0  0  0
   13   14  1  0  0  0  0
   13   27  1  0  0  0  0
   14   28  1  0  0  0  0
M  END
$$$$
guest14

verachem
   24   24  0  0  0  0  0  0  0  0999 V2000
   -0.2488    0.3872    0.4682 C   0  0  0  0  0  0  0  0  0  0  0  0
   -0.2326    1.8290    0.1680 N   0  3  0  0  0  0  0  0  0  0  0  0
   -1.3999   -0.2772   -0.2914 C   0  0  0  0  0  0  0  0  0  0  0  0
   -1.3991   -1.7935   -0.0920 C   0  0  0  0  0  0  0  0  0  0  0  0
   -0.0478   -2.4063   -0.4682 C   0  0  0  0  0  0  0  0  0  0  0  0
   -0.0640   -3.8482   -0.1680 N   0  3  0  0  0  0  0  0  0  0  0  0
    1.1033   -1.7420    0.2914 C   0  0  0  0  0  0  0  0  0  0  0  0
    1.1025   -0.2256    0.0920 C   0  0  0  0  0  0  0  0  0  0  0  0
   -0.4126    0.2966    1.5492 H   0  0  0  0  0  0  0  0  0  0  0  0
   -1.1061    2.2911    0.4340 H   0  0  0  0  0  0  0  0  0  0  0  0
    0.5020    2.3243    0.6804 H   0  0  0  0  0  0  0  0  0  0  0  0
   -0.0855    2.0450   -0.8212 H   0  0  0  0  0  0  0  0  0  0  0  0
   -2.3590    0.1330    0.0466 H   0  0  0  0  0  0  0  0  0  0  0  0
   -1.3214   -0.0549   -1.3636 H   0  0  0  0  0  0  0  0  0  0  0  0
   -1.6363   -2.0191    0.9559 H   0  0  0  0  0  0  0  0  0  0  0  0
   -2.1959   -2.2400   -0.6991 H   0  0  0  0  0  0  0  0  0  0  0  0
    0.1160   -2.3157   -1.5492 H   0  0  0  0  0  0  0  0  0  0  0  0
    0.8095   -4.3103   -0.4341 H   0  0  0  0  0  0  0  0  0  0  0  0
   -0.2111   -4.0642    0.8211 H   0  0  0  0  0  0  0  0  0  0  0  0
   -0.7986   -4.3434   -0.6805 H   0  0  0  0  0  0  0  0  0  0  0  0
    1.0248   -1.9642    1.3636 H   0  0  0  0  0  0  0  0  0  0  0  0
    2.0624   -2.1522   -0.0466 H   0  0  0  0  0  0  0  0  0  0  0  0
    1.3397   -0.0001   -0.9559 H   0  0  0  0  0  0  0  0  0  0  0  0
    1.8992    0.2208    0.6991 H   0  0  0  0  0  0  0  0  0  0  0  0
    1    2  1  0  0  0  0
    1    3  1  0  0  0  0
    1    8  1  0  0  0  0
    1    9  1  0  0  0  0
    2   10  1  0  0  0  0
    2   11  1  0  0  0  0
    2   12  1  0  0  0  0
    3    4  1  0  0  0  0
    3   13  1  0  0  0  0
    3   14  1  0  0  0  0
    4    5  1  0  0  0  0
    4   15  1  0  0  0  0
    4   16  1  0  0  0  0
    5    6  1  0  0  0  0
    5    7  1  0  0  0  0
    5   17  1  0  0  0  0
    6   18  1  0  0  0  0
    6   19  1  0  0  0  0
    6   20  1  0  0  0  0
    7    8  1  0  0  0  0
    7   21  1  0  0  0  0
    7   22  1  0  0  0  0
    8   23  1  0  0  0  0
    8   24  1  0  0  0  0
M  END
$$$$
guest15

verachem
   34   37  0  0  0  0  0  0  0  0999 V2000
    2.8430    5.7300   17.5030 C   0  0  0  0  0  0  0  0  0  0  0  0
    4.3450    5.7630   17.6460 C   0  0  0  0  0  0  0  0  0  0  0  0
    2.2320    7.0620   17.2060 N   0  3  0  0  0  0  0  0  0  0  0  0
    0.7570    7.1430   17.3000 C   0  0  0  0  0  0  0  0  0  0  0  0
    2.9430    8.0740   16.8410 C   0  0  0  0  0  0  0  0  0  0  0  0
    4.4060    8.0120   16.7790 C   0  0  0  0  0  0  0  0  0  0  0  0
    5.0710    6.8760   17.2210 C   0  0  0  0  0  0  0  0  0  0  0  0
    5.1200    9.1040   16.3190 C   0  0  0  0  0  0  0  0  0  0  0  0
    6.5100    9.0550   16.2660 C   0  0  0  0  0  0  0  0  0  0  0  0
    8.7160    7.8680   16.6220 C   0  0  0  0  0  0  0  0  0  0  0  0
    7.2120    7.9420   16.7310 C   0  0  0  0  0  0  0  0  0  0  0  0
    9.3240    6.7340   17.3840 N   0  3  0  0  0  0  0  0  0  0  0  0
   10.7980    6.7520   17.5220 C   0  0  0  0  0  0  0  0  0  0  0  0
    7.1500    5.7600   17.7560 C   0  0  0  0  0  0  0  0  0  0  0  0
    8.6120    5.7680   17.8560 C   0  0  0  0  0  0  0  0  0  0  0  0
    6.4850    6.8630   17.2350 C   0  0  0  0  0  0  0  0  0  0  0  0
    6.4370    4.6700   18.2190 C   0  0  0  0  0  0  0  0  0  0  0  0
    5.0470    4.6600   18.1340 C   0  0  0  0  0  0  0  0  0  0  0  0
    2.5740    5.0920   16.6620 H   0  0  0  0  0  0  0  0  0  0  0  0
    2.3760    5.3530   18.4140 H   0  0  0  0  0  0  0  0  0  0  0  0
    0.4150    8.1380   17.0010 H   0  0  0  0  0  0  0  0  0  0  0  0
    0.3290    6.3880   16.6350 H   0  0  0  0  0  0  0  0  0  0  0  0
    0.4700    6.9490   18.3370 H   0  0  0  0  0  0  0  0  0  0  0  0
    2.4320    9.0150   16.5790 H   0  0  0  0  0  0  0  0  0  0  0  0
    4.5900    9.9850   15.9780 H   0  0  0  0  0  0  0  0  0  0  0  0
    7.0430    9.8960   15.8480 H   0  0  0  0  0  0  0  0  0  0  0  0
    8.9950    7.7030   15.5820 H   0  0  0  0  0  0  0  0  0  0  0  0
   11.1380    5.8490   18.0360 H   0  0  0  0  0  0  0  0  0  0  0  0
   11.2340    6.7960   16.5200 H   0  0  0  0  0  0  0  0  0  0  0  0
   11.0760    7.6360   18.1010 H   0  0  0  0  0  0  0  0  0  0  0  0
    6.9650    3.8170   18.6240 H   0  0  0  0  0  0  0  0  0  0  0  0
    4.5150    3.7740   18.4480 H   0  0  0  0  0  0  0  0  0  0  0  0
    9.1230    4.9290   18.3590 H   0  0  0  0  0  0  0  0  0  0  0  0
    9.1760    8.7880   16.9840 H   0  0  0  0  0  0  0  0  0  0  0  0
    1    2  1  0  0  0  0
    1    3  1  0  0  0  0
    1   19  1  0  0  0  0
    1   20  1  0  0  0  0
    2   18  2  0  0  0  0
    2    7  1  0  0  0  0
    3    4  1  0  0  0  0
    3    5  2  0  0  0  0
    4   21  1  0  0  0  0
    4   22  1  0  0  0  0
    4   23  1  0  0  0  0
    5    6  1  0  0  0  0
    5   24  1  0  0  0  0
    6    7  2  0  0  0  0
    6    8  1  0  0  0  0
    7   16  1  0  0  0  0
    8    9  2  0  0  0  0
    8   25  1  0  0  0  0
    9   11  1  0  0  0  0
    9   26  1  0  0  0  0
   10   11  1  0  0  0  0
   10   12  1  0  0  0  0
   10   27  1  0  0  0  0
   10   34  1  0  0  0  0
   11   16  2  0  0  0  0
   12   13  1  0  0  0  0
   12   15  2  0  0  0  0
   13   28  1  0  0  0  0
   13   29  1  0  0  0  0
   13   30  1  0  0  0  0
   14   15  1  0  0  0  0
   14   16  1  0  0  0  0
   14   17  2  0  0  0  0
   15   33  1  0  0  0  0
   17   18  1  0  0  0  0
   17   31  1  0  0  0  0
   18   32  1  0  0  0  0
M  END
$$$$
guest16

verachem
   26   25  0  0  0  0  0  0  0  0999 V2000
    5.2722    1.9285    0.0000 C   0  0  0  0  0  0  0  0  0  0  0  0
    6.7362    1.8357    0.0000 N   0  3  0  0  0  0  0  0  0  0  0  0
    4.6175    0.5435    0.0000 C   0  0  0  0  0  0  0  0  0  0  0  0
    3.0906    0.6653    0.0000 C   0  0  0  0  0  0  0  0  0  0  0  0
    2.4424   -0.7223    0.0000 C   0  0  0  0  0  0  0  0  0  0  0  0
    0.9156   -0.6006    0.0000 C   0  0  0  0  0  0  0  0  0  0  0  0
    0.2609   -1.9855    0.0000 C   0  0  0  0  0  0  0  0  0  0  0  0
   -1.2031   -1.8926    0.0000 N   0  3  0  0  0  0  0  0  0  0  0  0
    4.9519    2.4759    0.8874 H   0  0  0  0  0  0  0  0  0  0  0  0
    4.9519    2.4759   -0.8874 H   0  0  0  0  0  0  0  0  0  0  0  0
    7.1351    2.7555    0.0000 H   0  0  0  0  0  0  0  0  0  0  0  0
    7.0570    1.3498    0.8159 H   0  0  0  0  0  0  0  0  0  0  0  0
    7.0570    1.3498   -0.8159 H   0  0  0  0  0  0  0  0  0  0  0  0
    4.9367   -0.0015   -0.8887 H   0  0  0  0  0  0  0  0  0  0  0  0
    4.9367   -0.0015    0.8887 H   0  0  0  0  0  0  0  0  0  0  0  0
    2.7722    1.2106    0.8889 H   0  0  0  0  0  0  0  0  0  0  0  0
    2.7722    1.2106   -0.8889 H   0  0  0  0  0  0  0  0  0  0  0  0
    2.7609   -1.2677   -0.8889 H   0  0  0  0  0  0  0  0  0  0  0  0
    2.7609   -1.2677    0.8889 H   0  0  0  0  0  0  0  0  0  0  0  0
    0.5964   -0.0555    0.8887 H   0  0  0  0  0  0  0  0  0  0  0  0
    0.5964   -0.0555   -0.8887 H   0  0  0  0  0  0  0  0  0  0  0  0
    0.5811   -2.5330   -0.8874 H   0  0  0  0  0  0  0  0  0  0  0  0
    0.5811   -2.5330    0.8874 H   0  0  0  0  0  0  0  0  0  0  0  0
   -1.6021   -2.8124    0.0000 H   0  0  0  0  0  0  0  0  0  0  0  0
   -1.5239   -1.4067    0.8159 H   0  0  0  0  0  0  0  0  0  0  0  0
   -1.5239   -1.4067   -0.8159 H   0  0  0  0  0  0  0  0  0  0  0  0
    1    2  1  0  0  0  0
    1    3  1  0  0  0  0
    1    9  1  0  0  0  0
    1   10  1  0  0  0  0
    2   11  1  0  0  0  0
    2   12  1  0  0  0  0
    2   13  1  0  0  0  0
    3    4  1  0  0  0  0
    3   14  1  0  0  0  0
    3   15  1  0  0  0  0
    4    5  1  0  0  0  0
    4   16  1  0  0  0  0
    4   17  1  0  0  0  0
    5    6  1  0  0  0  0
    5   18  1  0  0  0  0
    5   19  1  0  0  0  0
    6    7  1  0  0  0  0
    6   20  1  0  0  0  0
    6   21  1  0  0  0  0
    7    8  1  0  0  0  0
    7   22  1  0  0  0  0
    7   23  1  0  0  0  0
    8   24  1  0  0  0  0
    8   25  1  0  0  0  0
    8   26  1  0  0  0  0
M  END
$$$$
guest17

verachem
   32   34  0  0  0  0  0  0  0  0999 V2000
   -0.5429   -0.6108   -1.2887 C   0  0  0  0  0  0  0  0  0  0  0  0
    0.6056    1.4099   -0.3040 C   0  0  2  0  0  0  0  0  0  0  0  0
    1.1186   -0.9299    0.5847 C   0  0  1  0  0  0  0  0  0  0  0  0
   -1.1268    0.1381    1.0200 C   0  0  0  0  0  0  0  0  0  0  0  0
    0.0468    0.7741   -1.5899 C   0  0  0  0  0  0  0  0  0  0  0  0
    0.5507   -1.5239   -0.7171 C   0  0  0  0  0  0  0  0  0  0  0  0
   -1.6828   -0.4744   -0.2716 C   0  0  0  0  0  0  0  0  0  0  0  0
    1.6853    0.4712    0.2736 C   0  0  0  0  0  0  0  0  0  0  0  0
   -0.5376    1.5236    0.7208 C   0  0  0  0  0  0  0  0  0  0  0  0
   -0.0338   -0.7744    1.5937 C   0  0  0  0  0  0  0  0  0  0  0  0
   -0.9317   -1.0459   -2.2096 H   0  0  0  0  0  0  0  0  0  0  0  0
    1.1687    2.7414   -0.5935 N   0  3  0  0  0  0  0  0  0  0  0  0
    2.1664   -1.8091    1.1350 N   0  3  0  0  0  0  0  0  0  0  0  0
   -1.9326    0.2378    1.7476 H   0  0  0  0  0  0  0  0  0  0  0  0
    0.8451    0.6746   -2.3262 H   0  0  0  0  0  0  0  0  0  0  0  0
   -0.7305    1.4147   -2.0075 H   0  0  0  0  0  0  0  0  0  0  0  0
    0.1299   -2.5098   -0.5168 H   0  0  0  0  0  0  0  0  0  0  0  0
    1.3508   -1.6322   -1.4500 H   0  0  0  0  0  0  0  0  0  0  0  0
   -2.4655    0.1672   -0.6776 H   0  0  0  0  0  0  0  0  0  0  0  0
   -2.1097   -1.4556   -0.0613 H   0  0  0  0  0  0  0  0  0  0  0  0
    2.4998    0.3767   -0.4453 H   0  0  0  0  0  0  0  0  0  0  0  0
    2.0864    0.9069    1.1893 H   0  0  0  0  0  0  0  0  0  0  0  0
   -0.1592    1.9626    1.6445 H   0  0  0  0  0  0  0  0  0  0  0  0
   -1.3207    2.1716    0.3257 H   0  0  0  0  0  0  0  0  0  0  0  0
   -0.4602   -1.7530    1.8164 H   0  0  0  0  0  0  0  0  0  0  0  0
    0.3465   -0.3441    2.5207 H   0  0  0  0  0  0  0  0  0  0  0  0
    1.5330    3.1681    0.2392 H   0  0  0  0  0  0  0  0  0  0  0  0
    0.4639    3.3501   -0.9691 H   0  0  0  0  0  0  0  0  0  0  0  0
    1.9132    2.6804   -1.2643 H   0  0  0  0  0  0  0  0  0  0  0  0
    2.5419   -1.4336    1.9871 H   0  0  0  0  0  0  0  0  0  0  0  0
    2.9222   -1.9212    0.4836 H   0  0  0  0  0  0  0  0  0  0  0  0
    1.7949   -2.7199    1.3364 H   0  0  0  0  0  0  0  0  0  0  0  0
    1    5  1  0  0  0  0
    1    6  1  0  0  0  0
    1    7  1  0  0  0  0
    1   11  1  0  0  0  0
    2    5  1  0  0  0  0
    2    8  1  0  0  0  0
    2    9  1  0  0  0  0
    2   12  1  0  0  0  0
    3    6  1  0  0  0  0
    3    8  1  0  0  0  0
    3   10  1  0  0  0  0
    3   13  1  0  0  0  0
    4    7  1  0  0  0  0
    4    9  1  0  0  0  0
    4   10  1  0  0  0  0
    4   14  1  0  0  0  0
    5   15  1  0  0  0  0
    5   16  1  0  0  0  0
    6   17  1  0  0  0  0
    6   18  1  0  0  0  0
    7   19  1  0  0  0  0
    7   20  1  0  0  0  0
    8   21  1  0  0  0  0
    8   22  1  0  0  0  0
    9   23  1  0  0  0  0
    9   24  1  0  0  0  0
   10   25  1  0  0  0  0
   10   26  1  0  0  0  0
   12   27  1  0  0  0  0
   12   28  1  0  0  0  0
   12   29  1  0  0  0  0
   13   30  1  0  0  0  0
   13   31  1  0  0  0  0
   13   32  1  0  0  0  0
M  END
$$$$
guest18

verachem
   29   31  0  0  0  0  0  0  0  0999 V2000
   -0.5868   -0.7095   -1.2880 C   0  0  0  0  0  0  0  0  0  0  0  0
    0.3916    1.4313   -0.3168 C   0  0  0  0  0  0  0  0  0  0  0  0
    1.0731   -0.8406    0.5983 C   0  0  1  0  0  0  0  0  0  0  0  0
   -1.2522    0.0293    1.0233 C   0  0  2  0  0  0  0  0  0  0  0  0
   -0.1093    0.7233   -1.6080 C   0  0  0  0  0  0  0  0  0  0  0  0
    0.5834   -1.5222   -0.6963 C   0  0  0  0  0  0  0  0  0  0  0  0
   -1.7452   -0.6510   -0.2707 C   0  0  0  0  0  0  0  0  0  0  0  0
    1.5561    0.5918    0.2803 C   0  0  0  0  0  0  0  0  0  0  0  0
   -0.7781    1.4651    0.7068 C   0  0  0  0  0  0  0  0  0  0  0  0
   -0.0823   -0.7816    1.6203 C   0  0  0  0  0  0  0  0  0  0  0  0
   -0.9337   -1.1891   -2.2045 H   0  0  0  0  0  0  0  0  0  0  0  0
    0.8706    2.8661   -0.6339 C   0  0  0  0  0  0  0  0  0  0  0  0
   -2.0701    0.0689    1.7443 H   0  0  0  0  0  0  0  0  0  0  0  0
    0.6853    0.6873   -2.3555 H   0  0  0  0  0  0  0  0  0  0  0  0
   -0.9248    1.2897   -2.0612 H   0  0  0  0  0  0  0  0  0  0  0  0
    0.2673   -2.5458   -0.4894 H   0  0  0  0  0  0  0  0  0  0  0  0
    1.3983   -1.5948   -1.4184 H   0  0  0  0  0  0  0  0  0  0  0  0
   -2.5905   -0.1026   -0.6894 H   0  0  0  0  0  0  0  0  0  0  0  0
   -2.1106   -1.6562   -0.0548 H   0  0  0  0  0  0  0  0  0  0  0  0
    2.3924    0.5541   -0.4202 H   0  0  0  0  0  0  0  0  0  0  0  0
    1.9477    1.0484    1.1903 H   0  0  0  0  0  0  0  0  0  0  0  0
   -0.4794    1.9563    1.6339 H   0  0  0  0  0  0  0  0  0  0  0  0
   -1.6095    2.0513    0.3111 H   0  0  0  0  0  0  0  0  0  0  0  0
   -0.4126   -1.7896    1.8759 H   0  0  0  0  0  0  0  0  0  0  0  0
    0.2579   -0.3276    2.5523 H   0  0  0  0  0  0  0  0  0  0  0  0
    1.8992   -1.4161    1.0189 H   0  0  0  0  0  0  0  0  0  0  0  0
    0.8538    3.3662   -1.7594 O   0  0  0  0  0  0  0  0  0  0  0  0
    1.3154    3.5183    0.4741 O   0  0  0  0  0  0  0  0  0  0  0  0
    1.2415    2.9538    1.2328 H   0  0  0  0  0  0  0  0  0  0  0  0
    1    5  1  0  0  0  0
    1    6  1  0  0  0  0
    1    7  1  0  0  0  0
    1   11  1  0  0  0  0
    2    5  1  0  0  0  0
    2    8  1  0  0  0  0
    2    9  1  0  0  0  0
    2   12  1  0  0  0  0
    3    6  1  0  0  0  0
    3    8  1  0  0  0  0
    3   10  1  0  0  0  0
    3   26  1  0  0  0  0
    4    7  1  0  0  0  0
    4    9  1  0  0  0  0
    4   10  1  0  0  0  0
    4   13  1  0  0  0  0
    5   14  1  0  0  0  0
    5   15  1  0  0  0  0
    6   16  1  0  0  0  0
    6   17  1  0  0  0  0
    7   18  1  0  0  0  0
    7   19  1  0  0  0  0
    8   20  1  0  0  0  0
    8   21  1  0  0  0  0
    9   22  1  0  0  0  0
    9   23  1  0  0  0  0
   10   24  1  0  0  0  0
   10   25  1  0  0  0  0
   12   27  2  0  0  0  0
   12   28  1  0  0  0  0
   28   29  1  0  0  0  0
M  END
$$$$
guest19

verachem
   24   24  0  0  0  0  0  0  0  0999 V2000
   -3.4780    0.0000   -1.0930 N   0  3  0  0  0  0  0  0  0  0  0  0
    3.4770    0.0000   -1.0930 N   0  3  0  0  0  0  0  0  0  0  0  0
   -1.3950   -0.0000    0.2730 C   0  0  0  0  0  0  0  0  0  0  0  0
    1.3950    0.0000    0.2730 C   0  0  0  0  0  0  0  0  0  0  0  0
   -2.8860   -0.0000    0.2730 C   0  0  0  0  0  0  0  0  0  0  0  0
    2.8860    0.0000    0.2730 C   0  0  0  0  0  0  0  0  0  0  0  0
   -0.6970    1.2080    0.2730 C   0  0  0  0  0  0  0  0  0  0  0  0
    0.6970    1.2080    0.2730 C   0  0  0  0  0  0  0  0  0  0  0  0
   -0.6970   -1.2080    0.2730 C   0  0  0  0  0  0  0  0  0  0  0  0
    0.6980   -1.2080    0.2730 C   0  0  0  0  0  0  0  0  0  0  0  0
   -3.2850   -0.8830    0.7840 H   0  0  0  0  0  0  0  0  0  0  0  0
   -3.2850    0.8830    0.7850 H   0  0  0  0  0  0  0  0  0  0  0  0
    3.2850    0.8830    0.7840 H   0  0  0  0  0  0  0  0  0  0  0  0
    3.2850   -0.8830    0.7840 H   0  0  0  0  0  0  0  0  0  0  0  0
   -1.2290    2.1560    0.2710 H   0  0  0  0  0  0  0  0  0  0  0  0
    1.2290    2.1560    0.2710 H   0  0  0  0  0  0  0  0  0  0  0  0
   -1.2290   -2.1560    0.2710 H   0  0  0  0  0  0  0  0  0  0  0  0
    1.2300   -2.1560    0.2710 H   0  0  0  0  0  0  0  0  0  0  0  0
   -3.1920   -0.8300   -1.6290 H   0  0  0  0  0  0  0  0  0  0  0  0
   -3.1920    0.8310   -1.6290 H   0  0  0  0  0  0  0  0  0  0  0  0
   -4.5050    0.0000   -1.0510 H   0  0  0  0  0  0  0  0  0  0  0  0
    4.5050    0.0000   -1.0520 H   0  0  0  0  0  0  0  0  0  0  0  0
    3.1910    0.8300   -1.6290 H   0  0  0  0  0  0  0  0  0  0  0  0
    3.1910   -0.8300   -1.6290 H   0  0  0  0  0  0  0  0  0  0  0  0
    1    5  1  0  0  0  0
    1   19  1  0  0  0  0
    1   20  1  0  0  0  0
    1   21  1  0  0  0  0
    2    6  1  0  0  0  0
    2   22  1  0  0  0  0
    2   23  1  0  0  0  0
    2   24  1  0  0  0  0
    3    5  1  0  0  0  0
    3    7  2  0  0  0  0
    3    9  1  0  0  0  0
    4    6  1  0  0  0  0
    4    8  2  0  0  0  0
    4   10  1  0  0  0  0
    5   11  1  0  0  0  0
    5   12  1  0  0  0  0
    6   13  1  0  0  0  0
    6   14  1  0  0  0  0
    7    8  1  0  0  0  0
    7   15  1  0  0  0  0
    8   16  1  0  0  0  0
    9   10  2  0  0  0  0
    9   17  1  0  0  0  0
   10   18  1  0  0  0  0
M  END
$$$$
guest20

verachem
   30   31  0  0  0  0  0  0  0  0999 V2000
   -0.7414   -0.1657    1.4069 C   0  0  0  0  0  0  0  0  0  0  0  0
    0.7556   -0.4935    1.2336 C   0  0  0  0  0  0  0  0  0  0  0  0
    1.2703    0.0036   -0.1318 C   0  0  0  0  0  0  0  0  0  0  0  0
   -1.2939    0.5472    0.1567 C   0  0  0  0  0  0  0  0  0  0  0  0
   -1.0624   -0.3690   -1.0618 C   0  0  0  0  0  0  0  0  0  0  0  0
    0.4385   -0.6778   -1.2371 C   0  0  0  0  0  0  0  0  0  0  0  0
   -0.4813    1.8397   -0.0592 C   0  0  0  0  0  0  0  0  0  0  0  0
    1.0199    1.5228   -0.2168 C   0  0  0  0  0  0  0  0  0  0  0  0
   -2.7861    0.8643    0.3232 C   0  0  0  0  0  0  0  0  0  0  0  0
   -3.2366    1.5194   -0.8515 O   0  0  0  0  0  0  0  0  0  0  0  0
   -0.8822    0.4621    2.2877 H   0  0  0  0  0  0  0  0  0  0  0  0
   -1.3009   -1.0831    1.5937 H   0  0  0  0  0  0  0  0  0  0  0  0
    0.9104   -1.5696    1.3219 H   0  0  0  0  0  0  0  0  0  0  0  0
    1.3295   -0.0357    2.0402 H   0  0  0  0  0  0  0  0  0  0  0  0
   -1.4472    0.1102   -1.9635 H   0  0  0  0  0  0  0  0  0  0  0  0
   -1.6250   -1.2960   -0.9500 H   0  0  0  0  0  0  0  0  0  0  0  0
    0.6032   -1.7553   -1.2262 H   0  0  0  0  0  0  0  0  0  0  0  0
    0.7735   -0.3318   -2.2164 H   0  0  0  0  0  0  0  0  0  0  0  0
   -0.6337    2.5273    0.7728 H   0  0  0  0  0  0  0  0  0  0  0  0
   -0.8433    2.3582   -0.9486 H   0  0  0  0  0  0  0  0  0  0  0  0
    1.3778    1.9038   -1.1746 H   0  0  0  0  0  0  0  0  0  0  0  0
    1.5952    2.0440    0.5485 H   0  0  0  0  0  0  0  0  0  0  0  0
   -2.9340    1.5071    1.1982 H   0  0  0  0  0  0  0  0  0  0  0  0
   -3.3478   -0.0630    0.4815 H   0  0  0  0  0  0  0  0  0  0  0  0
   -4.1625    1.7363   -0.7916 H   0  0  0  0  0  0  0  0  0  0  0  0
    2.7624   -0.3122   -0.3013 C   0  0  0  0  0  0  0  0  0  0  0  0
    3.1777    0.1641   -1.5712 O   0  0  0  0  0  0  0  0  0  0  0  0
    2.9240   -1.3935   -0.2286 H   0  0  0  0  0  0  0  0  0  0  0  0
    3.3379    0.1736    0.4946 H   0  0  0  0  0  0  0  0  0  0  0  0
    4.1023   -0.0117   -1.7197 H   0  0  0  0  0  0  0  0  0  0  0  0
    1    2  1  0  0  0  0
    1    4  1  0  0  0  0
    1   11  1  0  0  0  0
    1   12  1  0  0  0  0
    2    3  1  0  0  0  0
    2   13  1  0  0  0  0
    2   14  1  0  0  0  0
    3    6  1  0  0  0  0
    3    8  1  0  0  0  0
    3   26  1  0  0  0  0
    4    5  1  0  0  0  0
    4    7  1  0  0  0  0
    4    9  1  0  0  0  0
    5    6  1  0  0  0  0
    5   15  1  0  0  0  0
    5   16  1  0  0  0  0
    6   17  1  0  0  0  0
    6   18  1  0  0  0  0
    7    8  1  0  0  0  0
    7   19  1  0  0  0  0
    7   20  1  0  0  0  0
    8   21  1  0  0  0  0
    8   22  1  0  0  0  0
    9   10  1  0  0  0  0
    9   23  1  0  0  0  0
    9   24  1  0  0  0  0
   10   25  1  0  0  0  0
   26   27  1  0  0  0  0
   26   28  1  0  0  0  0
   26   29  1  0  0  0  0
   27   30  1  0  0  0  0
M  END
$$$$
guest21

verachem
   27   29  0  0  0  0  0  0  0  0999 V2000
   -0.5654   -0.6652   -1.2811 C   0  0  0  0  0  0  0  0  0  0  0  0
    0.5814    1.3597   -0.2951 C   0  0  0  0  0  0  0  0  0  0  0  0
    1.0811   -0.9580    0.5801 C   0  0  1  0  0  0  0  0  0  0  0  0
   -1.1482    0.0834    1.0342 C   0  0  2  0  0  0  0  0  0  0  0  0
    0.0217    0.7221   -1.5805 C   0  0  0  0  0  0  0  0  0  0  0  0
    0.5323   -1.5753   -0.7135 C   0  0  0  0  0  0  0  0  0  0  0  0
   -1.7019   -0.5316   -0.2583 C   0  0  0  0  0  0  0  0  0  0  0  0
    1.6666    0.4295    0.2788 C   0  0  0  0  0  0  0  0  0  0  0  0
   -0.5605    1.4699    0.7326 C   0  0  0  0  0  0  0  0  0  0  0  0
   -0.0517   -0.8251    1.6069 C   0  0  0  0  0  0  0  0  0  0  0  0
   -0.9560   -1.0998   -2.2013 H   0  0  0  0  0  0  0  0  0  0  0  0
    1.1437    2.6889   -0.5833 O   0  0  0  0  0  0  0  0  0  0  0  0
   -1.9536    0.1816    1.7623 H   0  0  0  0  0  0  0  0  0  0  0  0
    0.8191    0.6249   -2.3178 H   0  0  0  0  0  0  0  0  0  0  0  0
   -0.7576    1.3614   -1.9965 H   0  0  0  0  0  0  0  0  0  0  0  0
    0.1202   -2.5629   -0.5043 H   0  0  0  0  0  0  0  0  0  0  0  0
    1.3370   -1.6799   -1.4418 H   0  0  0  0  0  0  0  0  0  0  0  0
   -2.4879    0.1069   -0.6626 H   0  0  0  0  0  0  0  0  0  0  0  0
   -2.1245   -1.5142   -0.0470 H   0  0  0  0  0  0  0  0  0  0  0  0
    2.4801    0.3294   -0.4403 H   0  0  0  0  0  0  0  0  0  0  0  0
    2.0680    0.8588    1.1972 H   0  0  0  0  0  0  0  0  0  0  0  0
   -0.1809    1.9094    1.6555 H   0  0  0  0  0  0  0  0  0  0  0  0
   -1.3454    2.1166    0.3392 H   0  0  0  0  0  0  0  0  0  0  0  0
   -0.4666   -1.8091    1.8270 H   0  0  0  0  0  0  0  0  0  0  0  0
    0.3371   -0.3956    2.5306 H   0  0  0  0  0  0  0  0  0  0  0  0
    0.4399    3.2985   -0.9582 H   0  0  0  0  0  0  0  0  0  0  0  0
    1.8627   -1.6012    0.9847 H   0  0  0  0  0  0  0  0  0  0  0  0
    1    5  1  0  0  0  0
    1    6  1  0  0  0  0
    1    7  1  0  0  0  0
    1   11  1  0  0  0  0
    2    5  1  0  0  0  0
    2    8  1  0  0  0  0
    2    9  1  0  0  0  0
    2   12  1  0  0  0  0
    3    6  1  0  0  0  0
    3    8  1  0  0  0  0
    3   10  1  0  0  0  0
    3   27  1  0  0  0  0
    4    7  1  0  0  0  0
    4    9  1  0  0  0  0
    4   10  1  0  0  0  0
    4   13  1  0  0  0  0
    5   14  1  0  0  0  0
    5   15  1  0  0  0  0
    6   16  1  0  0  0  0
    6   17  1  0  0  0  0
    7   18  1  0  0  0  0
    7   19  1  0  0  0  0
    8   20  1  0  0  0  0
    8   21  1  0  0  0  0
    9   22  1  0  0  0  0
    9   23  1  0  0  0  0
   10   24  1  0  0  0  0
   10   25  1  0  0  0  0
   12   26  1  0  0  0  0
M  END
$$$$
guest22

verachem
   38   40  0  0  0  0  0  0  0  0999 V2000
   -0.5683   -0.6771   -1.2681 C   0  0  0  0  0  0  0  0  0  0  0  0
    0.6052    1.4161   -0.3073 C   0  0  0  0  0  0  0  0  0  0  0  0
    1.0662   -0.9678    0.5795 C   0  0  1  0  0  0  0  0  0  0  0  0
   -1.1469    0.0661    1.0303 C   0  0  2  0  0  0  0  0  0  0  0  0
    0.0185    0.7101   -1.5676 C   0  0  0  0  0  0  0  0  0  0  0  0
    0.5247   -1.5925   -0.7094 C   0  0  0  0  0  0  0  0  0  0  0  0
   -1.7089   -0.5491   -0.2545 C   0  0  0  0  0  0  0  0  0  0  0  0
    1.6517    0.4195    0.2782 C   0  0  0  0  0  0  0  0  0  0  0  0
   -0.5593    1.4524    0.7289 C   0  0  0  0  0  0  0  0  0  0  0  0
   -0.0593   -0.8425    1.6103 C   0  0  0  0  0  0  0  0  0  0  0  0
   -0.9575   -1.1083   -2.1905 H   0  0  0  0  0  0  0  0  0  0  0  0
    1.1923    2.8039   -0.6082 N   0  3  0  0  0  0  0  0  0  0  0  0
   -1.9517    0.1686    1.7583 H   0  0  0  0  0  0  0  0  0  0  0  0
    0.7850    0.5586   -2.3251 H   0  0  0  0  0  0  0  0  0  0  0  0
   -0.7896    1.2939   -2.0039 H   0  0  0  0  0  0  0  0  0  0  0  0
    0.1110   -2.5791   -0.4985 H   0  0  0  0  0  0  0  0  0  0  0  0
    1.3293   -1.6980   -1.4377 H   0  0  0  0  0  0  0  0  0  0  0  0
   -2.4953    0.0888   -0.6587 H   0  0  0  0  0  0  0  0  0  0  0  0
   -2.1293   -1.5326   -0.0423 H   0  0  0  0  0  0  0  0  0  0  0  0
    2.4723    0.2581   -0.4182 H   0  0  0  0  0  0  0  0  0  0  0  0
    2.0611    0.7869    1.2172 H   0  0  0  0  0  0  0  0  0  0  0  0
   -0.2232    1.8538    1.6830 H   0  0  0  0  0  0  0  0  0  0  0  0
   -1.3863    2.0611    0.3686 H   0  0  0  0  0  0  0  0  0  0  0  0
   -0.4748   -1.8268    1.8280 H   0  0  0  0  0  0  0  0  0  0  0  0
    0.3293   -0.4136    2.5344 H   0  0  0  0  0  0  0  0  0  0  0  0
    1.7555    3.4899    0.5920 C   0  0  0  0  0  0  0  0  0  0  0  0
    0.1992    3.7659   -1.1709 C   0  0  0  0  0  0  0  0  0  0  0  0
    2.3094    2.7806   -1.5981 C   0  0  0  0  0  0  0  0  0  0  0  0
    1.8506   -1.6077    0.9839 H   0  0  0  0  0  0  0  0  0  0  0  0
    2.1592    4.4674    0.3261 H   0  0  0  0  0  0  0  0  0  0  0  0
    0.9989    3.6700    1.3533 H   0  0  0  0  0  0  0  0  0  0  0  0
    2.5780    2.9312    1.0347 H   0  0  0  0  0  0  0  0  0  0  0  0
    0.6637    4.7331   -1.3656 H   0  0  0  0  0  0  0  0  0  0  0  0
   -0.2064    3.4263   -2.1221 H   0  0  0  0  0  0  0  0  0  0  0  0
   -0.6223    3.9559   -0.4828 H   0  0  0  0  0  0  0  0  0  0  0  0
    2.6895    3.7869   -1.7774 H   0  0  0  0  0  0  0  0  0  0  0  0
    3.1559    2.1938   -1.2465 H   0  0  0  0  0  0  0  0  0  0  0  0
    1.9909    2.3988   -2.5662 H   0  0  0  0  0  0  0  0  0  0  0  0
    1    5  1  0  0  0  0
    1    6  1  0  0  0  0
    1    7  1  0  0  0  0
    1   11  1  0  0  0  0
    2    5  1  0  0  0  0
    2    8  1  0  0  0  0
    2    9  1  0  0  0  0
    2   12  1  0  0  0  0
    3    6  1  0  0  0  0
    3    8  1  0  0  0  0
    3   10  1  0  0  0  0
    3   29  1  0  0  0  0
    4    7  1  0  0  0  0
    4    9  1  0  0  0  0
    4   10  1  0  0  0  0
    4   13  1  0  0  0  0
    5   14  1  0  0  0  0
    5   15  1  0  0  0  0
    6   16  1  0  0  0  0
    6   17  1  0  0  0  0
    7   18  1  0  0  0  0
    7   19  1  0  0  0  0
    8   20  1  0  0  0  0
    8   21  1  0  0  0  0
    9   22  1  0  0  0  0
    9   23  1  0  0  0  0
   10   24  1  0  0  0  0
   10   25  1  0  0  0  0
   12   26  1  0  0  0  0
   12   27  1  0  0  0  0
   12   28  1  0  0  0  0
   26   30  1  0  0  0  0
   26   31  1  0  0  0  0
   26   32  1  0  0  0  0
   27   33  1  0  0  0  0
   27   34  1  0  0  0  0
   27   35  1  0  0  0  0
   28   36  1  0  0  0  0
   28   37  1  0  0  0  0
   28   38  1  0  0  0  0
M  END
$$$$
guest23

verachem
   36   39  0  0  0  0  0  0  0  0999 V2000
   -1.6929    0.2332   -1.5584 C   0  0  0  0  0  0  0  0  0  0  0  0
    0.4203    1.2319   -0.5223 C   0  0  0  0  0  0  0  0  0  0  0  0
   -1.5044    0.3917    0.9145 C   0  0  1  0  0  0  0  0  0  0  0  0
   -1.8088    2.4572   -0.4553 C   0  0  2  0  0  0  0  0  0  0  0  0
   -0.1718    0.3819   -1.6724 C   0  0  0  0  0  0  0  0  0  0  0  0
   -2.0429   -0.4564   -0.2387 C   0  0  0  0  0  0  0  0  0  0  0  0
   -2.3481    1.6143   -1.6121 C   0  0  0  0  0  0  0  0  0  0  0  0
    0.0180    0.5287    0.7924 C   0  0  0  0  0  0  0  0  0  0  0  0
   -0.2877    2.6029   -0.5833 C   0  0  0  0  0  0  0  0  0  0  0  0
   -2.1503    1.7799    0.8753 C   0  0  0  0  0  0  0  0  0  0  0  0
   -2.0615   -0.3717   -2.3886 H   0  0  0  0  0  0  0  0  0  0  0  0
    1.8919    1.3938   -0.6054 N   0  3  0  0  0  0  0  0  0  0  0  0
   -2.2704    3.4456   -0.4859 H   0  0  0  0  0  0  0  0  0  0  0  0
    0.2575   -0.6213   -1.6580 H   0  0  0  0  0  0  0  0  0  0  0  0
    0.0404    0.8511   -2.6345 H   0  0  0  0  0  0  0  0  0  0  0  0
   -3.1254   -0.5595   -0.1498 H   0  0  0  0  0  0  0  0  0  0  0  0
   -1.5955   -1.4511   -0.2085 H   0  0  0  0  0  0  0  0  0  0  0  0
   -2.1188    2.0984   -2.5626 H   0  0  0  0  0  0  0  0  0  0  0  0
   -3.4311    1.5147   -1.5254 H   0  0  0  0  0  0  0  0  0  0  0  0
    0.4715   -0.4630    0.8267 H   0  0  0  0  0  0  0  0  0  0  0  0
    0.3664    1.0895    1.6589 H   0  0  0  0  0  0  0  0  0  0  0  0
    0.0475    3.2531    0.2240 H   0  0  0  0  0  0  0  0  0  0  0  0
   -0.0524    3.0909   -1.5303 H   0  0  0  0  0  0  0  0  0  0  0  0
   -3.2328    1.6852    0.9731 H   0  0  0  0  0  0  0  0  0  0  0  0
   -1.7800    2.3845    1.7046 H   0  0  0  0  0  0  0  0  0  0  0  0
    2.5260    2.1252    0.3566 C   0  0  0  0  0  0  0  0  0  0  0  0
    2.6350    0.8378   -1.6088 C   0  0  0  0  0  0  0  0  0  0  0  0
   -1.7487   -0.0933    1.8611 H   0  0  0  0  0  0  0  0  0  0  0  0
    2.1880    0.2516   -2.3932 H   0  0  0  0  0  0  0  0  0  0  0  0
    1.9695    2.5771    1.1616 H   0  0  0  0  0  0  0  0  0  0  0  0
    3.9204    2.3189    0.3387 C   0  0  0  0  0  0  0  0  0  0  0  0
    4.6892    1.7538   -0.6842 C   0  0  0  0  0  0  0  0  0  0  0  0
    4.0322    1.0053   -1.6668 C   0  0  0  0  0  0  0  0  0  0  0  0
    4.3933    2.9042    1.1161 H   0  0  0  0  0  0  0  0  0  0  0  0
    5.7632    1.8919   -0.7146 H   0  0  0  0  0  0  0  0  0  0  0  0
    4.5951    0.5536   -2.4729 H   0  0  0  0  0  0  0  0  0  0  0  0
    1    5  1  0  0  0  0
    1    6  1  0  0  0  0
    1    7  1  0  0  0  0
    1   11  1  0  0  0  0
    2    5  1  0  0  0  0
    2    8  1  0  0  0  0
    2    9  1  0  0  0  0
    2   12  1  0  0  0  0
    3    6  1  0  0  0  0
    3    8  1  0  0  0  0
    3   10  1  0  0  0  0
    3   28  1  0  0  0  0
    4    7  1  0  0  0  0
    4    9  1  0  0  0  0
    4   10  1  0  0  0  0
    4   13  1  0  0  0  0
    5   14  1  0  0  0  0
    5   15  1  0  0  0  0
    6   16  1  0  0  0  0
    6   17  1  0  0  0  0
    7   18  1  0  0  0  0
    7   19  1  0  0  0  0
    8   20  1  0  0  0  0
    8   21  1  0  0  0  0
    9   22  1  0  0  0  0
    9   23  1  0  0  0  0
   10   24  1  0  0  0  0
   10   25  1  0  0  0  0
   12   26  2  0  0  0  0
   12   27  1  0  0  0  0
   26   30  1  0  0  0  0
   26   31  1  0  0  0  0
   27   29  1  0  0  0  0
   27   33  2  0  0  0  0
   31   32  2  0  0  0  0
   31   34  1  0  0  0  0
   32   33  1  0  0  0  0
   32   35  1  0  0  0  0
   33   36  1  0  0  0  0
M  END
$$$$
guest24

verachem
   29   31  0  0  0  0  0  0  0  0999 V2000
   11.7175   -6.8650   -1.5791 C   0  0  2  0  0  0  0  0  0  0  0  0
   12.3461   -7.3534   -0.2628 C   0  0  0  0  0  0  0  0  0  0  0  0
   13.7080   -6.6706   -0.0471 C   0  0  1  0  0  0  0  0  0  0  0  0
   14.6366   -7.0194   -1.2232 C   0  0  0  0  0  0  0  0  0  0  0  0
   14.0268   -6.5203   -2.5490 C   0  0  1  0  0  0  0  0  0  0  0  0
   12.6616   -7.2124   -2.7461 C   0  0  0  0  0  0  0  0  0  0  0  0
   11.5255   -5.3378   -1.5077 C   0  0  0  0  0  0  0  0  0  0  0  0
   13.7803   -4.9996   -2.5103 C   0  0  1  0  0  0  0  0  0  0  0  0
   12.8873   -4.6402   -1.3069 C   0  0  2  0  0  0  0  0  0  0  0  0
   13.5019   -5.1471    0.0136 C   0  0  0  0  0  0  0  0  0  0  0  0
   15.0701   -4.2631   -2.4417 N   0  3  0  0  0  0  0  0  0  0  0  0
   10.7480   -7.3531   -1.7296 H   0  0  0  0  0  0  0  0  0  0  0  0
   11.6774   -7.1308    0.5776 H   0  0  0  0  0  0  0  0  0  0  0  0
   12.4724   -8.4427   -0.2890 H   0  0  0  0  0  0  0  0  0  0  0  0
   14.1513   -7.0221    0.8917 H   0  0  0  0  0  0  0  0  0  0  0  0
   15.6285   -6.5820   -1.0628 H   0  0  0  0  0  0  0  0  0  0  0  0
   14.7833   -8.1057   -1.2699 H   0  0  0  0  0  0  0  0  0  0  0  0
   14.6911   -6.7794   -3.3816 H   0  0  0  0  0  0  0  0  0  0  0  0
   12.7976   -8.2991   -2.8075 H   0  0  0  0  0  0  0  0  0  0  0  0
   12.2140   -6.8944   -3.6959 H   0  0  0  0  0  0  0  0  0  0  0  0
   11.0523   -4.9775   -2.4296 H   0  0  0  0  0  0  0  0  0  0  0  0
   10.8485   -5.0832   -0.6830 H   0  0  0  0  0  0  0  0  0  0  0  0
   13.3110   -4.6671   -3.4440 H   0  0  0  0  0  0  0  0  0  0  0  0
   12.7372   -3.5556   -1.2519 H   0  0  0  0  0  0  0  0  0  0  0  0
   12.8383   -4.8960    0.8504 H   0  0  0  0  0  0  0  0  0  0  0  0
   14.4551   -4.6456    0.2162 H   0  0  0  0  0  0  0  0  0  0  0  0
   15.6609   -4.4762   -3.2567 H   0  0  0  0  0  0  0  0  0  0  0  0
   15.6205   -4.4851   -1.6032 H   0  0  0  0  0  0  0  0  0  0  0  0
   14.9151   -3.2460   -2.4415 H   0  0  0  0  0  0  0  0  0  0  0  0
    1    2  1  0  0  0  0
    1    6  1  0  0  0  0
    1    7  1  0  0  0  0
    1   12  1  0  0  0  0
    2    3  1  0  0  0  0
    2   13  1  0  0  0  0
    2   14  1  0  0  0  0
    3    4  1  0  0  0  0
    3   10  1  0  0  0  0
    3   15  1  0  0  0  0
    4    5  1  0  0  0  0
    4   16  1  0  0  0  0
    4   17  1  0  0  0  0
    5    6  1  0  0  0  0
    5    8  1  0  0  0  0
    5   18  1  0  0  0  0
    6   19  1  0  0  0  0
    6   20  1  0  0  0  0
    7    9  1  0  0  0  0
    7   21  1  0  0  0  0
    7   22  1  0  0  0  0
    8    9  1  0  0  0  0
    8   11  1  0  0  0  0
    8   23  1  0  0  0  0
    9   10  1  0  0  0  0
    9   24  1  0  0  0  0
   10   25  1  0  0  0  0
   10   26  1  0  0  0  0
   11   27  1  0  0  0  0
   11   28  1  0  0  0  0
   11   29  1  0  0  0  0
M  END
$$$$
guest25

verachem
   29   31  0  0  0  0  0  0  0  0999 V2000
   -0.5654   -0.6652   -1.2811 C   0  0  0  0  0  0  0  0  0  0  0  0
    0.5814    1.3597   -0.2951 C   0  0  0  0  0  0  0  0  0  0  0  0
    1.0811   -0.9580    0.5801 C   0  0  1  0  0  0  0  0  0  0  0  0
   -1.1482    0.0834    1.0342 C   0  0  2  0  0  0  0  0  0  0  0  0
    0.0217    0.7221   -1.5805 C   0  0  0  0  0  0  0  0  0  0  0  0
    0.5323   -1.5753   -0.7135 C   0  0  0  0  0  0  0  0  0  0  0  0
   -1.7019   -0.5316   -0.2583 C   0  0  0  0  0  0  0  0  0  0  0  0
    1.6666    0.4295    0.2788 C   0  0  0  0  0  0  0  0  0  0  0  0
   -0.5605    1.4699    0.7326 C   0  0  0  0  0  0  0  0  0  0  0  0
   -0.0517   -0.8251    1.6069 C   0  0  0  0  0  0  0  0  0  0  0  0
   -0.9560   -1.0998   -2.2013 H   0  0  0  0  0  0  0  0  0  0  0  0
    1.1437    2.6889   -0.5833 N   0  3  0  0  0  0  0  0  0  0  0  0
   -1.9536    0.1816    1.7623 H   0  0  0  0  0  0  0  0  0  0  0  0
    0.8191    0.6249   -2.3178 H   0  0  0  0  0  0  0  0  0  0  0  0
   -0.7576    1.3614   -1.9965 H   0  0  0  0  0  0  0  0  0  0  0  0
    0.1202   -2.5629   -0.5043 H   0  0  0  0  0  0  0  0  0  0  0  0
    1.3370   -1.6799   -1.4418 H   0  0  0  0  0  0  0  0  0  0  0  0
   -2.4879    0.1069   -0.6626 H   0  0  0  0  0  0  0  0  0  0  0  0
   -2.1245   -1.5142   -0.0470 H   0  0  0  0  0  0  0  0  0  0  0  0
    2.4801    0.3294   -0.4403 H   0  0  0  0  0  0  0  0  0  0  0  0
    2.0680    0.8588    1.1972 H   0  0  0  0  0  0  0  0  0  0  0  0
   -0.1809    1.9094    1.6555 H   0  0  0  0  0  0  0  0  0  0  0  0
   -1.3454    2.1166    0.3392 H   0  0  0  0  0  0  0  0  0  0  0  0
   -0.4666   -1.8091    1.8270 H   0  0  0  0  0  0  0  0  0  0  0  0
    0.3371   -0.3956    2.5306 H   0  0  0  0  0  0  0  0  0  0  0  0
    1.5092    3.1087    0.2520 H   0  0  0  0  0  0  0  0  0  0  0  0
    0.4399    3.2985   -0.9582 H   0  0  0  0  0  0  0  0  0  0  0  0
    1.8889    2.6219   -1.2523 H   0  0  0  0  0  0  0  0  0  0  0  0
    1.8627   -1.6012    0.9847 H   0  0  0  0  0  0  0  0  0  0  0  0
    1    5  1  0  0  0  0
    1    6  1  0  0  0  0
    1    7  1  0  0  0  0
    1   11  1  0  0  0  0
    2    5  1  0  0  0  0
    2    8  1  0  0  0  0
    2    9  1  0  0  0  0
    2   12  1  0  0  0  0
    3    6  1  0  0  0  0
    3    8  1  0  0  0  0
    3   10  1  0  0  0  0
    3   29  1  0  0  0  0
    4    7  1  0  0  0  0
    4    9  1  0  0  0  0
    4   10  1  0  0  0  0
    4   13  1  0  0  0  0
    5   14  1  0  0  0  0
    5   15  1  0  0  0  0
    6   16  1  0  0  0  0
    6   17  1  0  0  0  0
    7   18  1  0  0  0  0
    7   19  1  0  0  0  0
    8   20  1  0  0  0  0
    8   21  1  0  0  0  0
    9   22  1  0  0  0  0
    9   23  1  0  0  0  0
   10   24  1  0  0  0  0
   10   25  1  0  0  0  0
   12   26  1  0  0  0  0
   12   27  1  0  0  0  0
   12   28  1  0  0  0  0
M  END
$$$$
guest26

verachem
   34   35  0  0  0  0  0  0  0  0999 V2000
    1.3170   -0.2900    0.6570 C   0  0  0  0  0  0  0  0  0  0  0  0
    1.6140    1.0340    1.3900 C   0  0  0  0  0  0  0  0  0  0  0  0
    0.1610   -0.1080   -0.3440 C   0  0  0  0  0  0  0  0  0  0  0  0
    0.6410    2.1430    0.9450 C   0  0  0  0  0  0  0  0  0  0  0  0
    0.5520    1.0160   -1.3240 C   0  0  0  0  0  0  0  0  0  0  0  0
    0.8050    2.3400   -0.5740 C   0  0  0  0  0  0  0  0  0  0  0  0
   -1.0840    0.3490    0.4410 C   0  0  0  0  0  0  0  0  0  0  0  0
   -0.7980    1.6560    1.2110 C   0  0  0  0  0  0  0  0  0  0  0  0
   -0.1160   -1.4100   -1.1140 C   0  0  0  0  0  0  0  0  0  0  0  0
    0.9360    3.4440    1.7100 C   0  0  0  0  0  0  0  0  0  0  0  0
   -0.4680   -2.5220   -0.2370 N   0  3  0  0  0  0  0  0  0  0  0  0
    0.0670    4.5470    1.3100 N   0  3  0  0  0  0  0  0  0  0  0  0
    2.2130   -0.6380    0.1410 H   0  0  0  0  0  0  0  0  0  0  0  0
    1.0700   -1.0610    1.3870 H   0  0  0  0  0  0  0  0  0  0  0  0
    1.5450    0.8830    2.4680 H   0  0  0  0  0  0  0  0  0  0  0  0
    2.6430    1.3420    1.1970 H   0  0  0  0  0  0  0  0  0  0  0  0
    1.4450    0.7300   -1.8820 H   0  0  0  0  0  0  0  0  0  0  0  0
   -0.2330    1.1560   -2.0680 H   0  0  0  0  0  0  0  0  0  0  0  0
    1.8060    2.7100   -0.8020 H   0  0  0  0  0  0  0  0  0  0  0  0
    0.1120    3.0990   -0.9360 H   0  0  0  0  0  0  0  0  0  0  0  0
   -1.9220    0.4970   -0.2410 H   0  0  0  0  0  0  0  0  0  0  0  0
   -1.3990   -0.4230    1.1430 H   0  0  0  0  0  0  0  0  0  0  0  0
   -0.9470    1.4980    2.2800 H   0  0  0  0  0  0  0  0  0  0  0  0
   -1.5210    2.4150    0.9150 H   0  0  0  0  0  0  0  0  0  0  0  0
   -0.9350   -1.2740   -1.8220 H   0  0  0  0  0  0  0  0  0  0  0  0
    0.7590   -1.7110   -1.6920 H   0  0  0  0  0  0  0  0  0  0  0  0
    0.8120    3.2960    2.7840 H   0  0  0  0  0  0  0  0  0  0  0  0
    1.9670    3.7620    1.5500 H   0  0  0  0  0  0  0  0  0  0  0  0
   -1.3220   -2.3050    0.3070 H   0  0  0  0  0  0  0  0  0  0  0  0
   -0.6480   -3.3780   -0.7910 H   0  0  0  0  0  0  0  0  0  0  0  0
    0.3010   -2.7240    0.4260 H   0  0  0  0  0  0  0  0  0  0  0  0
    0.2890    5.3970    1.8610 H   0  0  0  0  0  0  0  0  0  0  0  0
    0.1990    4.7680    0.3050 H   0  0  0  0  0  0  0  0  0  0  0  0
   -0.9280    4.3050    1.4690 H   0  0  0  0  0  0  0  0  0  0  0  0
    1    2  1  0  0  0  0
    1    3  1  0  0  0  0
    1   13  1  0  0  0  0
    1   14  1  0  0  0  0
    2    4  1  0  0  0  0
    2   15  1  0  0  0  0
    2   16  1  0  0  0  0
    3    5  1  0  0  0  0
    3    7  1  0  0  0  0
    3    9  1  0  0  0  0
    4    6  1  0  0  0  0
    4    8  1  0  0  0  0
    4   10  1  0  0  0  0
    5    6  1  0  0  0  0
    5   17  1  0  0  0  0
    5   18  1  0  0  0  0
    6   19  1  0  0  0  0
    6   20  1  0  0  0  0
    7    8  1  0  0  0  0
    7   21  1  0  0  0  0
    7   22  1  0  0  0  0
    8   23  1  0  0  0  0
    8   24  1  0  0  0  0
    9   11  1  0  0  0  0
    9   25  1  0  0  0  0
    9   26  1  0  0  0  0
   10   12  1  0  0  0  0
   10   27  1  0  0  0  0
   10   28  1  0  0  0  0
   11   29  1  0  0  0  0
   11   30  1  0  0  0  0
   11   31  1  0  0  0  0
   12   32  1  0  0  0  0
   12   33  1  0  0  0  0
   12   34  1  0  0  0  0
M  END
$$$$
guest27

verachem
   32   34  0  0  0  0  0  0  0  0999 V2000
   -0.5654   -0.6652   -1.2811 C   0  0  0  0  0  0  0  0  0  0  0  0
    0.5814    1.3597   -0.2951 C   0  0  0  0  0  0  0  0  0  0  0  0
    1.0811   -0.9580    0.5801 C   0  0  1  0  0  0  0  0  0  0  0  0
   -1.1482    0.0834    1.0342 C   0  0  2  0  0  0  0  0  0  0  0  0
    0.0217    0.7221   -1.5805 C   0  0  0  0  0  0  0  0  0  0  0  0
    0.5323   -1.5753   -0.7135 C   0  0  0  0  0  0  0  0  0  0  0  0
   -1.7019   -0.5316   -0.2583 C   0  0  0  0  0  0  0  0  0  0  0  0
    1.6666    0.4295    0.2788 C   0  0  0  0  0  0  0  0  0  0  0  0
   -0.5605    1.4699    0.7326 C   0  0  0  0  0  0  0  0  0  0  0  0
   -0.0517   -0.8251    1.6069 C   0  0  0  0  0  0  0  0  0  0  0  0
   -0.9560   -1.0998   -2.2013 H   0  0  0  0  0  0  0  0  0  0  0  0
    1.1437    2.6889   -0.5833 C   0  0  0  0  0  0  0  0  0  0  0  0
   -1.9536    0.1816    1.7623 H   0  0  0  0  0  0  0  0  0  0  0  0
    0.8191    0.6249   -2.3178 H   0  0  0  0  0  0  0  0  0  0  0  0
   -0.7576    1.3614   -1.9965 H   0  0  0  0  0  0  0  0  0  0  0  0
    0.1202   -2.5629   -0.5043 H   0  0  0  0  0  0  0  0  0  0  0  0
    1.3370   -1.6799   -1.4418 H   0  0  0  0  0  0  0  0  0  0  0  0
   -2.4879    0.1069   -0.6626 H   0  0  0  0  0  0  0  0  0  0  0  0
   -2.1245   -1.5142   -0.0470 H   0  0  0  0  0  0  0  0  0  0  0  0
    2.4801    0.3294   -0.4403 H   0  0  0  0  0  0  0  0  0  0  0  0
    2.0680    0.8588    1.1972 H   0  0  0  0  0  0  0  0  0  0  0  0
   -0.1809    1.9094    1.6555 H   0  0  0  0  0  0  0  0  0  0  0  0
   -1.3454    2.1166    0.3392 H   0  0  0  0  0  0  0  0  0  0  0  0
   -0.4666   -1.8091    1.8270 H   0  0  0  0  0  0  0  0  0  0  0  0
    0.3371   -0.3956    2.5306 H   0  0  0  0  0  0  0  0  0  0  0  0
    1.5349    3.1255    0.3356 H   0  0  0  0  0  0  0  0  0  0  0  0
    1.8627   -1.6012    0.9847 H   0  0  0  0  0  0  0  0  0  0  0  0
    0.3638    3.3339   -0.9881 H   0  0  0  0  0  0  0  0  0  0  0  0
    2.2673    2.5553   -1.5982 N   0  3  0  0  0  0  0  0  0  0  0  0
    2.6761    3.5216   -1.8077 H   0  0  0  0  0  0  0  0  0  0  0  0
    1.8842    2.1273   -2.5010 H   0  0  0  0  0  0  0  0  0  0  0  0
    3.0337    1.9228   -1.2013 H   0  0  0  0  0  0  0  0  0  0  0  0
    1    5  1  0  0  0  0
    1    6  1  0  0  0  0
    1    7  1  0  0  0  0
    1   11  1  0  0  0  0
    2    5  1  0  0  0  0
    2    8  1  0  0  0  0
    2    9  1  0  0  0  0
    2   12  1  0  0  0  0
    3    6  1  0  0  0  0
    3    8  1  0  0  0  0
    3   10  1  0  0  0  0
    3   27  1  0  0  0  0
    4    7  1  0  0  0  0
    4    9  1  0  0  0  0
    4   10  1  0  0  0  0
    4   13  1  0  0  0  0
    5   14  1  0  0  0  0
    5   15  1  0  0  0  0
    6   16  1  0  0  0  0
    6   17  1  0  0  0  0
    7   18  1  0  0  0  0
    7   19  1  0  0  0  0
    8   20  1  0  0  0  0
    8   21  1  0  0  0  0
    9   22  1  0  0  0  0
    9   23  1  0  0  0  0
   10   24  1  0  0  0  0
   10   25  1  0  0  0  0
   12   26  1  0  0  0  0
   12   28  1  0  0  0  0
   12   29  1  0  0  0  0
   29   30  1  0  0  0  0
   29   31  1  0  0  0  0
   29   32  1  0  0  0  0
M  END
$$$$
guest28

verachem
   70   71  0  0  0  0  0  0  0  0999 V2000
    1.3170   -0.2900    0.6570 C   0  0  0  0  0  0  0  0  0  0  0  0
    1.6140    1.0340    1.3900 C   0  0  0  0  0  0  0  0  0  0  0  0
    0.1610   -0.1080   -0.3440 C   0  0  0  0  0  0  0  0  0  0  0  0
    0.6410    2.1430    0.9450 C   0  0  0  0  0  0  0  0  0  0  0  0
    0.5520    1.0160   -1.3240 C   0  0  0  0  0  0  0  0  0  0  0  0
    0.8050    2.3400   -0.5740 C   0  0  0  0  0  0  0  0  0  0  0  0
   -1.0840    0.3490    0.4410 C   0  0  0  0  0  0  0  0  0  0  0  0
   -0.7980    1.6560    1.2110 C   0  0  0  0  0  0  0  0  0  0  0  0
   -0.1160   -1.4100   -1.1140 C   0  0  0  0  0  0  0  0  0  0  0  0
    0.9360    3.4440    1.7100 C   0  0  0  0  0  0  0  0  0  0  0  0
   -0.4680   -2.5220   -0.2370 N   0  3  0  0  0  0  0  0  0  0  0  0
    0.0670    4.5470    1.3100 N   0  3  0  0  0  0  0  0  0  0  0  0
    2.2130   -0.6380    0.1410 H   0  0  0  0  0  0  0  0  0  0  0  0
    1.0700   -1.0610    1.3870 H   0  0  0  0  0  0  0  0  0  0  0  0
    1.5450    0.8830    2.4680 H   0  0  0  0  0  0  0  0  0  0  0  0
    2.6430    1.3420    1.1970 H   0  0  0  0  0  0  0  0  0  0  0  0
    1.4450    0.7300   -1.8820 H   0  0  0  0  0  0  0  0  0  0  0  0
   -0.2330    1.1560   -2.0680 H   0  0  0  0  0  0  0  0  0  0  0  0
    1.8060    2.7100   -0.8020 H   0  0  0  0  0  0  0  0  0  0  0  0
    0.1120    3.0990   -0.9360 H   0  0  0  0  0  0  0  0  0  0  0  0
   -1.9220    0.4970   -0.2410 H   0  0  0  0  0  0  0  0  0  0  0  0
   -1.3990   -0.4230    1.1430 H   0  0  0  0  0  0  0  0  0  0  0  0
   -0.9470    1.4980    2.2800 H   0  0  0  0  0  0  0  0  0  0  0  0
   -1.5210    2.4150    0.9150 H   0  0  0  0  0  0  0  0  0  0  0  0
   -0.9350   -1.2740   -1.8220 H   0  0  0  0  0  0  0  0  0  0  0  0
    0.7590   -1.7110   -1.6920 H   0  0  0  0  0  0  0  0  0  0  0  0
    0.8120    3.2960    2.7840 H   0  0  0  0  0  0  0  0  0  0  0  0
    1.9670    3.7620    1.5500 H   0  0  0  0  0  0  0  0  0  0  0  0
   -1.3220   -2.3050    0.3070 H   0  0  0  0  0  0  0  0  0  0  0  0
   -0.7322   -3.7786   -1.0503 C   0  0  0  0  0  0  0  0  0  0  0  0
    0.3010   -2.7240    0.4260 H   0  0  0  0  0  0  0  0  0  0  0  0
    0.3924    5.7929    2.1176 C   0  0  0  0  0  0  0  0  0  0  0  0
    0.1990    4.7680    0.3050 H   0  0  0  0  0  0  0  0  0  0  0  0
   -0.9280    4.3050    1.4690 H   0  0  0  0  0  0  0  0  0  0  0  0
   -0.2627    6.6077    1.8094 H   0  0  0  0  0  0  0  0  0  0  0  0
    1.8591    6.1945    1.8745 C   0  0  0  0  0  0  0  0  0  0  0  0
    0.2430    5.5885    3.1779 H   0  0  0  0  0  0  0  0  0  0  0  0
    2.1888    7.4568    2.6928 C   0  0  0  0  0  0  0  0  0  0  0  0
    2.0092    6.3998    0.8146 H   0  0  0  0  0  0  0  0  0  0  0  0
    2.5152    5.3806    2.1830 H   0  0  0  0  0  0  0  0  0  0  0  0
    3.6364    7.8533    2.4528 N   0  3  0  0  0  0  0  0  0  0  0  0
    2.0396    7.2524    3.7530 H   0  0  0  0  0  0  0  0  0  0  0  0
    1.5336    8.2717    2.3845 H   0  0  0  0  0  0  0  0  0  0  0  0
    3.9619    9.0992    3.2604 C   0  0  0  0  0  0  0  0  0  0  0  0
    3.7838    8.0548    1.4123 H   0  0  0  0  0  0  0  0  0  0  0  0
    4.5513    6.7182    2.8830 C   0  0  0  0  0  0  0  0  0  0  0  0
    4.9999    9.3834    3.0884 H   0  0  0  0  0  0  0  0  0  0  0  0
    3.8127    8.8948    4.3207 H   0  0  0  0  0  0  0  0  0  0  0  0
    3.3067    9.9140    2.9522 H   0  0  0  0  0  0  0  0  0  0  0  0
    5.5894    7.0025    2.7110 H   0  0  0  0  0  0  0  0  0  0  0  0
    4.3192    5.8244    2.3040 H   0  0  0  0  0  0  0  0  0  0  0  0
    4.4024    6.5127    3.9431 H   0  0  0  0  0  0  0  0  0  0  0  0
   -0.9933   -4.5976   -0.3801 H   0  0  0  0  0  0  0  0  0  0  0  0
    0.5323   -4.1511   -1.8464 C   0  0  0  0  0  0  0  0  0  0  0  0
   -1.5560   -3.5985   -1.7410 H   0  0  0  0  0  0  0  0  0  0  0  0
    0.2646   -5.4242   -2.6704 C   0  0  0  0  0  0  0  0  0  0  0  0
    1.3565   -4.3321   -1.1564 H   0  0  0  0  0  0  0  0  0  0  0  0
    0.7939   -3.3329   -2.5175 H   0  0  0  0  0  0  0  0  0  0  0  0
    1.1596   -5.6878   -3.2339 H   0  0  0  0  0  0  0  0  0  0  0  0
   -0.5591   -5.2440   -3.3613 H   0  0  0  0  0  0  0  0  0  0  0  0
   -0.0994   -6.5663   -1.7358 N   0  3  0  0  0  0  0  0  0  0  0  0
   -0.3636   -7.8230   -2.5491 C   0  0  0  0  0  0  0  0  0  0  0  0
   -0.9784   -6.3088   -1.1826 H   0  0  0  0  0  0  0  0  0  0  0  0
    1.0489   -6.8192   -0.7725 C   0  0  0  0  0  0  0  0  0  0  0  0
   -0.6247   -8.6419   -1.8788 H   0  0  0  0  0  0  0  0  0  0  0  0
    0.5314   -8.0866   -3.1126 H   0  0  0  0  0  0  0  0  0  0  0  0
   -1.1874   -7.6428   -3.2398 H   0  0  0  0  0  0  0  0  0  0  0  0
    0.7879   -7.6382   -0.1023 H   0  0  0  0  0  0  0  0  0  0  0  0
    1.2387   -5.9188   -0.1883 H   0  0  0  0  0  0  0  0  0  0  0  0
    1.9446   -7.0823   -1.3352 H   0  0  0  0  0  0  0  0  0  0  0  0
    1    2  1  0  0  0  0
    1    3  1  0  0  0  0
    1   13  1  0  0  0  0
    1   14  1  0  0  0  0
    2    4  1  0  0  0  0
    2   15  1  0  0  0  0
    2   16  1  0  0  0  0
    3    5  1  0  0  0  0
    3    7  1  0  0  0  0
    3    9  1  0  0  0  0
    4    6  1  0  0  0  0
    4    8  1  0  0  0  0
    4   10  1  0  0  0  0
    5    6  1  0  0  0  0
    5   17  1  0  0  0  0
    5   18  1  0  0  0  0
    6   19  1  0  0  0  0
    6   20  1  0  0  0  0
    7    8  1  0  0  0  0
    7   21  1  0  0  0  0
    7   22  1  0  0  0  0
    8   23  1  0  0  0  0
    8   24  1  0  0  0  0
    9   11  1  0  0  0  0
    9   25  1  0  0  0  0
    9   26  1  0  0  0  0
   10   12  1  0  0  0  0
   10   27  1  0  0  0  0
   10   28  1  0  0  0  0
   11   29  1  0  0  0  0
   11   30  1  0  0  0  0
   11   31  1  0  0  0  0
   12   32  1  0  0  0  0
   12   33  1  0  0  0  0
   12   34  1  0  0  0  0
   30   53  1  0  0  0  0
   30   54  1  0  0  0  0
   30   55  1  0  0  0  0
   32   35  1  0  0  0  0
   32   36  1  0  0  0  0
   32   37  1  0  0  0  0
   36   38  1  0  0  0  0
   36   39  1  0  0  0  0
   36   40  1  0  0  0  0
   38   41  1  0  0  0  0
   38   42  1  0  0  0  0
   38   43  1  0  0  0  0
   41   44  1  0  0  0  0
   41   45  1  0  0  0  0
   41   46  1  0  0  0  0
   44   47  1  0  0  0  0
   44   48  1  0  0  0  0
   44   49  1  0  0  0  0
   46   50  1  0  0  0  0
   46   51  1  0  0  0  0
   46   52  1  0  0  0  0
   54   56  1  0  0  0  0
   54   57  1  0  0  0  0
   54   58  1  0  0  0  0
   56   59  1  0  0  0  0
   56   60  1  0  0  0  0
   56   61  1  0  0  0  0
   61   62  1  0  0  0  0
   61   63  1  0  0  0  0
   61   64  1  0  0  0  0
   62   65  1  0  0  0  0
   62   66  1  0  0  0  0
   62   67  1  0  0  0  0
   64   68  1  0  0  0  0
   64   69  1  0  0  0  0
   64   70  1  0  0  0  0
M  END
$$$$
guest29

verachem
   38   40  0  0  0  0  0  0  0  0999 V2000
   -0.5654   -0.6652   -1.2811 C   0  0  0  0  0  0  0  0  0  0  0  0
    0.5814    1.3597   -0.2951 C   0  0  0  0  0  0  0  0  0  0  0  0
    1.0811   -0.9580    0.5801 C   0  0  1  0  0  0  0  0  0  0  0  0
   -1.1482    0.0834    1.0342 C   0  0  2  0  0  0  0  0  0  0  0  0
    0.0217    0.7221   -1.5805 C   0  0  0  0  0  0  0  0  0  0  0  0
    0.5323   -1.5753   -0.7135 C   0  0  0  0  0  0  0  0  0  0  0  0
   -1.7019   -0.5316   -0.2583 C   0  0  0  0  0  0  0  0  0  0  0  0
    1.6666    0.4295    0.2788 C   0  0  0  0  0  0  0  0  0  0  0  0
   -0.5605    1.4699    0.7326 C   0  0  0  0  0  0  0  0  0  0  0  0
   -0.0517   -0.8251    1.6069 C   0  0  0  0  0  0  0  0  0  0  0  0
   -0.9560   -1.0998   -2.2013 H   0  0  0  0  0  0  0  0  0  0  0  0
    1.1437    2.6889   -0.5833 N   0  3  0  0  0  0  0  0  0  0  0  0
   -1.9536    0.1816    1.7623 H   0  0  0  0  0  0  0  0  0  0  0  0
    0.8191    0.6249   -2.3178 H   0  0  0  0  0  0  0  0  0  0  0  0
   -0.7576    1.3614   -1.9965 H   0  0  0  0  0  0  0  0  0  0  0  0
    0.1202   -2.5629   -0.5043 H   0  0  0  0  0  0  0  0  0  0  0  0
    1.3370   -1.6799   -1.4418 H   0  0  0  0  0  0  0  0  0  0  0  0
   -2.4879    0.1069   -0.6626 H   0  0  0  0  0  0  0  0  0  0  0  0
   -2.1245   -1.5142   -0.0470 H   0  0  0  0  0  0  0  0  0  0  0  0
    2.4801    0.3294   -0.4403 H   0  0  0  0  0  0  0  0  0  0  0  0
    2.0680    0.8588    1.1972 H   0  0  0  0  0  0  0  0  0  0  0  0
   -0.1809    1.9094    1.6555 H   0  0  0  0  0  0  0  0  0  0  0  0
   -1.3454    2.1166    0.3392 H   0  0  0  0  0  0  0  0  0  0  0  0
   -0.4666   -1.8091    1.8270 H   0  0  0  0  0  0  0  0  0  0  0  0
    0.3371   -0.3956    2.5306 H   0  0  0  0  0  0  0  0  0  0  0  0
    0.3777    3.3214   -0.9808 H   0  0  0  0  0  0  0  0  0  0  0  0
    1.8627   -1.6012    0.9847 H   0  0  0  0  0  0  0  0  0  0  0  0
    1.5276    3.1168    0.3192 H   0  0  0  0  0  0  0  0  0  0  0  0
    2.2673    2.5553   -1.5982 C   0  0  0  0  0  0  0  0  0  0  0  0
    2.8557    3.9461   -1.8998 C   0  0  0  0  0  0  0  0  0  0  0  0
    1.8770    2.1193   -2.5178 H   0  0  0  0  0  0  0  0  0  0  0  0
    3.0480    1.9110   -1.1939 H   0  0  0  0  0  0  0  0  0  0  0  0
    3.9793    3.8125   -2.9147 N   0  3  0  0  0  0  0  0  0  0  0  0
    3.2469    4.3828   -0.9808 H   0  0  0  0  0  0  0  0  0  0  0  0
    2.0758    4.5911   -2.3047 H   0  0  0  0  0  0  0  0  0  0  0  0
    4.3881    4.7789   -3.1242 H   0  0  0  0  0  0  0  0  0  0  0  0
    3.5962    3.3845   -3.8175 H   0  0  0  0  0  0  0  0  0  0  0  0
    4.7457    3.1800   -2.5178 H   0  0  0  0  0  0  0  0  0  0  0  0
    1    5  1  0  0  0  0
    1    6  1  0  0  0  0
    1    7  1  0  0  0  0
    1   11  1  0  0  0  0
    2    5  1  0  0  0  0
    2    8  1  0  0  0  0
    2    9  1  0  0  0  0
    2   12  1  0  0  0  0
    3    6  1  0  0  0  0
    3    8  1  0  0  0  0
    3   10  1  0  0  0  0
    3   27  1  0  0  0  0
    4    7  1  0  0  0  0
    4    9  1  0  0  0  0
    4   10  1  0  0  0  0
    4   13  1  0  0  0  0
    5   14  1  0  0  0  0
    5   15  1  0  0  0  0
    6   16  1  0  0  0  0
    6   17  1  0  0  0  0
    7   18  1  0  0  0  0
    7   19  1  0  0  0  0
    8   20  1  0  0  0  0
    8   21  1  0  0  0  0
    9   22  1  0  0  0  0
    9   23  1  0  0  0  0
   10   24  1  0  0  0  0
   10   25  1  0  0  0  0
   12   26  1  0  0  0  0
   12   28  1  0  0  0  0
   12   29  1  0  0  0  0
   29   30  1  0  0  0  0
   29   31  1  0  0  0  0
   29   32  1  0  0  0  0
   30   33  1  0  0  0  0
   30   34  1  0  0  0  0
   30   35  1  0  0  0  0
   33   36  1  0  0  0  0
   33   37  1  0  0  0  0
   33   38  1  0  0  0  0
M  END
$$$$
