guest4

verachem
   23   23  0  0  0  0  0  0  0  0999 V2000
   -0.2670    1.9640   -0.0810 C   0  0  0  0  0  0  0  0  0  0  0  0
    1.0440    1.8300    0.1100 C   0  0  0  0  0  0  0  0  0  0  0  0
    1.6240    0.4860    0.2550 C   0  0  0  0  0  0  0  0  0  0  0  0
    0.8420   -0.5900    0.1870 C   0  0  0  0  0  0  0  0  0  0  0  0
   -0.5980   -0.4360   -0.0290 C   0  0  0  0  0  0  0  0  0  0  0  0
   -1.1260    0.7800   -0.1570 C   0  0  0  0  0  0  0  0  0  0  0  0
   -1.4130   -1.5600   -0.1000 O   0  0  0  0  0  0  0  0  0  0  0  0
    1.3920   -1.8590    0.3230 O   0  0  0  0  0  0  0  0  0  0  0  0
    1.9120    3.0670    0.1930 C   0  0  0  0  0  0  0  0  0  0  0  0
    3.4170    2.7150    0.2820 C   0  0  0  0  0  0  0  0  0  0  0  0
    3.8660    2.0720   -0.9660 N   0  3  0  0  0  0  0  0  0  0  0  0
   -0.7020    2.9580   -0.1830 H   0  0  0  0  0  0  0  0  0  0  0  0
    2.6950    0.3700    0.4170 H   0  0  0  0  0  0  0  0  0  0  0  0
   -2.1980    0.8940   -0.3170 H   0  0  0  0  0  0  0  0  0  0  0  0
   -2.1360   -1.5170    0.6600 H   0  0  0  0  0  0  0  0  0  0  0  0
    0.9590   -2.3430    1.1480 H   0  0  0  0  0  0  0  0  0  0  0  0
    1.6310    3.6360    1.0800 H   0  0  0  0  0  0  0  0  0  0  0  0
    1.7450    3.6750   -0.6960 H   0  0  0  0  0  0  0  0  0  0  0  0
    3.5780    2.0320    1.1160 H   0  0  0  0  0  0  0  0  0  0  0  0
    3.9910    3.6280    0.4430 H   0  0  0  0  0  0  0  0  0  0  0  0
    4.9070    1.8350   -0.8910 H   0  0  0  0  0  0  0  0  0  0  0  0
    3.7120    2.7410   -1.7880 H   0  0  0  0  0  0  0  0  0  0  0  0
    3.3070    1.1750   -1.1280 H   0  0  0  0  0  0  0  0  0  0  0  0
   10   11  1  0  0  0  0
    9   10  1  0  0  0  0
    2    9  1  0  0  0  0
    4    8  1  0  0  0  0
    5    7  1  0  0  0  0
    6    1  1  0  0  0  0
    5    6  2  0  0  0  0
    4    5  1  0  0  0  0
    3    4  2  0  0  0  0
    2    3  1  0  0  0  0
    1    2  2  0  0  0  0
    1   12  1  0  0  0  0
    3   13  1  0  0  0  0
    6   14  1  0  0  0  0
    7   15  1  0  0  0  0
    8   16  1  0  0  0  0
    9   17  1  0  0  0  0
    9   18  1  0  0  0  0
   10   19  1  0  0  0  0
   10   20  1  0  0  0  0
   11   21  1  0  0  0  0
   11   22  1  0  0  0  0
   11   23  1  0  0  0  0
M  END
$$$$
