guest6

verachem
   18   18  0  0  0  0  0  0  0  0999 V2000
   -0.0730    1.8210    0.3160 C   0  0  0  0  0  0  0  0  0  0  0  0
    1.2380    1.7790    0.0840 C   0  0  0  0  0  0  0  0  0  0  0  0
    1.8830    0.5060   -0.2460 C   0  0  0  0  0  0  0  0  0  0  0  0
    1.1590   -0.6100   -0.3140 C   0  0  0  0  0  0  0  0  0  0  0  0
   -0.2840   -0.5640   -0.0580 C   0  0  0  0  0  0  0  0  0  0  0  0
   -0.8700    0.5940    0.2420 C   0  0  0  0  0  0  0  0  0  0  0  0
    2.0150    2.9780    0.1570 N   0  3  0  0  0  0  0  0  0  0  0  0
   -0.7020    3.0640    0.6390 N   0  3  0  0  0  0  0  0  0  0  0  0
    2.9560    0.4720   -0.4360 H   0  0  0  0  0  0  0  0  0  0  0  0
    1.6390   -1.5570   -0.5590 H   0  0  0  0  0  0  0  0  0  0  0  0
   -0.8760   -1.4770   -0.1130 H   0  0  0  0  0  0  0  0  0  0  0  0
   -1.9430    0.6280    0.4320 H   0  0  0  0  0  0  0  0  0  0  0  0
    1.3790    3.8010    0.4080 H   0  0  0  0  0  0  0  0  0  0  0  0
    2.4780    3.1610   -0.7900 H   0  0  0  0  0  0  0  0  0  0  0  0
    2.7700    2.8690    0.9080 H   0  0  0  0  0  0  0  0  0  0  0  0
    0.0310    3.8440    0.6470 H   0  0  0  0  0  0  0  0  0  0  0  0
   -1.1590    2.9940    1.6040 H   0  0  0  0  0  0  0  0  0  0  0  0
   -1.4500    3.2870   -0.0940 H   0  0  0  0  0  0  0  0  0  0  0  0
    1    8  1  0  0  0  0
    2    7  1  0  0  0  0
    6    1  1  0  0  0  0
    5    6  2  0  0  0  0
    4    5  1  0  0  0  0
    3    4  2  0  0  0  0
    2    3  1  0  0  0  0
    1    2  2  0  0  0  0
    3    9  1  0  0  0  0
    4   10  1  0  0  0  0
    5   11  1  0  0  0  0
    6   12  1  0  0  0  0
    7   13  1  0  0  0  0
    7   14  1  0  0  0  0
    7   15  1  0  0  0  0
    8   16  1  0  0  0  0
    8   17  1  0  0  0  0
    8   18  1  0  0  0  0
M  END
$$$$
