guest18

verachem
   29   31  0  0  0  0  0  0  0  0999 V2000
   -0.5868   -0.7095   -1.2880 C   0  0  0  0  0  0  0  0  0  0  0  0
    0.3916    1.4313   -0.3168 C   0  0  0  0  0  0  0  0  0  0  0  0
    1.0731   -0.8406    0.5983 C   0  0  1  0  0  0  0  0  0  0  0  0
   -1.2522    0.0293    1.0233 C   0  0  2  0  0  0  0  0  0  0  0  0
   -0.1093    0.7233   -1.6080 C   0  0  0  0  0  0  0  0  0  0  0  0
    0.5834   -1.5222   -0.6963 C   0  0  0  0  0  0  0  0  0  0  0  0
   -1.7452   -0.6510   -0.2707 C   0  0  0  0  0  0  0  0  0  0  0  0
    1.5561    0.5918    0.2803 C   0  0  0  0  0  0  0  0  0  0  0  0
   -0.7781    1.4651    0.7068 C   0  0  0  0  0  0  0  0  0  0  0  0
   -0.0823   -0.7816    1.6203 C   0  0  0  0  0  0  0  0  0  0  0  0
   -0.9337   -1.1891   -2.2045 H   0  0  0  0  0  0  0  0  0  0  0  0
    0.8706    2.8661   -0.6339 C   0  0  0  0  0  0  0  0  0  0  0  0
   -2.0701    0.0689    1.7443 H   0  0  0  0  0  0  0  0  0  0  0  0
    0.6853    0.6873   -2.3555 H   0  0  0  0  0  0  0  0  0  0  0  0
   -0.9248    1.2897   -2.0612 H   0  0  0  0  0  0  0  0  0  0  0  0
    0.2673   -2.5458   -0.4894 H   0  0  0  0  0  0  0  0  0  0  0  0
    1.3983   -1.5948   -1.4184 H   0  0  0  0  0  0  0  0  0  0  0  0
   -2.5905   -0.1026   -0.6894 H   0  0  0  0  0  0  0  0  0  0  0  0
   -2.1106   -1.6562   -0.0548 H   0  0  0  0  0  0  0  0  0  0  0  0
    2.3924    0.5541   -0.4202 H   0  0  0  0  0  0  0  0  0  0  0  0
    1.9477    1.0484    1.1903 H   0  0  0  0  0  0  0  0  0  0  0  0
   -0.4794    1.9563    1.6339 H   0  0  0  0  0  0  0  0  0  0  0  0
   -1.6095    2.0513    0.3111 H   0  0  0  0  0  0  0  0  0  0  0  0
   -0.4126   -1.7896    1.8759 H   0  0  0  0  0  0  0  0  0  0  0  0
    0.2579   -0.3276    2.5523 H   0  0  0  0  0  0  0  0  0  0  0  0
    1.8992   -1.4161    1.0189 H   0  0  0  0  0  0  0  0  0  0  0  0
    0.8538    3.3662   -1.7594 O   0  0  0  0  0  0  0  0  0  0  0  0
    1.3154    3.5183    0.4741 O   0  0  0  0  0  0  0  0  0  0  0  0
    1.2415    2.9538    1.2328 H   0  0  0  0  0  0  0  0  0  0  0  0
    1    5  1  0  0  0  0
    1    6  1  0  0  0  0
    1    7  1  0  0  0  0
    1   11  1  0  0  0  0
    2    5  1  0  0  0  0
    2    8  1  0  0  0  0
    2    9  1  0  0  0  0
    2   12  1  0  0  0  0
    3    6  1  0  0  0  0
    3    8  1  0  0  0  0
    3   10  1  0  0  0  0
    3   26  1  0  0  0  0
    4    7  1  0  0  0  0
    4    9  1  0  0  0  0
    4   10  1  0  0  0  0
    4   13  1  0  0  0  0
    5   14  1  0  0  0  0
    5   15  1  0  0  0  0
    6   16  1  0  0  0  0
    6   17  1  0  0  0  0
    7   18  1  0  0  0  0
    7   19  1  0  0  0  0
    8   20  1  0  0  0  0
    8   21  1  0  0  0  0
    9   22  1  0  0  0  0
    9   23  1  0  0  0  0
   10   24  1  0  0  0  0
   10   25  1  0  0  0  0
   12   27  2  0  0  0  0
   12   28  1  0  0  0  0
   28   29  1  0  0  0  0
M  END
$$$$
