guest15

verachem
   34   37  0  0  0  0  0  0  0  0999 V2000
    2.8430    5.7300   17.5030 C   0  0  0  0  0  0  0  0  0  0  0  0
    4.3450    5.7630   17.6460 C   0  0  0  0  0  0  0  0  0  0  0  0
    2.2320    7.0620   17.2060 N   0  3  0  0  0  0  0  0  0  0  0  0
    0.7570    7.1430   17.3000 C   0  0  0  0  0  0  0  0  0  0  0  0
    2.9430    8.0740   16.8410 C   0  0  0  0  0  0  0  0  0  0  0  0
    4.4060    8.0120   16.7790 C   0  0  0  0  0  0  0  0  0  0  0  0
    5.0710    6.8760   17.2210 C   0  0  0  0  0  0  0  0  0  0  0  0
    5.1200    9.1040   16.3190 C   0  0  0  0  0  0  0  0  0  0  0  0
    6.5100    9.0550   16.2660 C   0  0  0  0  0  0  0  0  0  0  0  0
    8.7160    7.8680   16.6220 C   0  0  0  0  0  0  0  0  0  0  0  0
    7.2120    7.9420   16.7310 C   0  0  0  0  0  0  0  0  0  0  0  0
    9.3240    6.7340   17.3840 N   0  3  0  0  0  0  0  0  0  0  0  0
   10.7980    6.7520   17.5220 C   0  0  0  0  0  0  0  0  0  0  0  0
    7.1500    5.7600   17.7560 C   0  0  0  0  0  0  0  0  0  0  0  0
    8.6120    5.7680   17.8560 C   0  0  0  0  0  0  0  0  0  0  0  0
    6.4850    6.8630   17.2350 C   0  0  0  0  0  0  0  0  0  0  0  0
    6.4370    4.6700   18.2190 C   0  0  0  0  0  0  0  0  0  0  0  0
    5.0470    4.6600   18.1340 C   0  0  0  0  0  0  0  0  0  0  0  0
    2.5740    5.0920   16.6620 H   0  0  0  0  0  0  0  0  0  0  0  0
    2.3760    5.3530   18.4140 H   0  0  0  0  0  0  0  0  0  0  0  0
    0.4150    8.1380   17.0010 H   0  0  0  0  0  0  0  0  0  0  0  0
    0.3290    6.3880   16.6350 H   0  0  0  0  0  0  0  0  0  0  0  0
    0.4700    6.9490   18.3370 H   0  0  0  0  0  0  0  0  0  0  0  0
    2.4320    9.0150   16.5790 H   0  0  0  0  0  0  0  0  0  0  0  0
    4.5900    9.9850   15.9780 H   0  0  0  0  0  0  0  0  0  0  0  0
    7.0430    9.8960   15.8480 H   0  0  0  0  0  0  0  0  0  0  0  0
    8.9950    7.7030   15.5820 H   0  0  0  0  0  0  0  0  0  0  0  0
   11.1380    5.8490   18.0360 H   0  0  0  0  0  0  0  0  0  0  0  0
   11.2340    6.7960   16.5200 H   0  0  0  0  0  0  0  0  0  0  0  0
   11.0760    7.6360   18.1010 H   0  0  0  0  0  0  0  0  0  0  0  0
    6.9650    3.8170   18.6240 H   0  0  0  0  0  0  0  0  0  0  0  0
    4.5150    3.7740   18.4480 H   0  0  0  0  0  0  0  0  0  0  0  0
    9.1230    4.9290   18.3590 H   0  0  0  0  0  0  0  0  0  0  0  0
    9.1760    8.7880   16.9840 H   0  0  0  0  0  0  0  0  0  0  0  0
    1    2  1  0  0  0  0
    1    3  1  0  0  0  0
    1   19  1  0  0  0  0
    1   20  1  0  0  0  0
    2   18  2  0  0  0  0
    2    7  1  0  0  0  0
    3    4  1  0  0  0  0
    3    5  2  0  0  0  0
    4   21  1  0  0  0  0
    4   22  1  0  0  0  0
    4   23  1  0  0  0  0
    5    6  1  0  0  0  0
    5   24  1  0  0  0  0
    6    7  2  0  0  0  0
    6    8  1  0  0  0  0
    7   16  1  0  0  0  0
    8    9  2  0  0  0  0
    8   25  1  0  0  0  0
    9   11  1  0  0  0  0
    9   26  1  0  0  0  0
   10   11  1  0  0  0  0
   10   12  1  0  0  0  0
   10   27  1  0  0  0  0
   10   34  1  0  0  0  0
   11   16  2  0  0  0  0
   12   13  1  0  0  0  0
   12   15  2  0  0  0  0
   13   28  1  0  0  0  0
   13   29  1  0  0  0  0
   13   30  1  0  0  0  0
   14   15  1  0  0  0  0
   14   16  1  0  0  0  0
   14   17  2  0  0  0  0
   15   33  1  0  0  0  0
   17   18  1  0  0  0  0
   17   31  1  0  0  0  0
   18   32  1  0  0  0  0
M  END
$$$$
