guest5

verachem
   50   52  0  0  0  0  0  0  0  0999 V2000
   -0.5535   -0.6164   -1.3038 C   0  0  0  0  0  0  0  0  0  0  0  0
    0.5954    1.3931   -0.3013 C   0  0  2  0  0  0  0  0  0  0  0  0
    1.1015   -0.9170    0.5761 C   0  0  1  0  0  0  0  0  0  0  0  0
   -1.1435    0.1403    1.0290 C   0  0  0  0  0  0  0  0  0  0  0  0
    0.0417    0.7723   -1.5960 C   0  0  0  0  0  0  0  0  0  0  0  0
    0.5451   -1.5247   -0.7236 C   0  0  0  0  0  0  0  0  0  0  0  0
   -1.6873   -0.4734   -0.2732 C   0  0  0  0  0  0  0  0  0  0  0  0
    1.6873    0.4734    0.2732 C   0  0  0  0  0  0  0  0  0  0  0  0
   -0.5450    1.5247    0.7236 C   0  0  0  0  0  0  0  0  0  0  0  0
   -0.0418   -0.7723    1.5960 C   0  0  0  0  0  0  0  0  0  0  0  0
   -0.9440   -1.0513   -2.2238 H   0  0  0  0  0  0  0  0  0  0  0  0
    1.1812    2.7640   -0.5978 N   0  3  0  0  0  0  0  0  0  0  0  0
    2.1996   -1.8313    1.1505 N   0  3  0  0  0  0  0  0  0  0  0  0
   -1.9545    0.2398    1.7589 H   0  0  0  0  0  0  0  0  0  0  0  0
    0.8413    0.6875   -2.3422 H   0  0  0  0  0  0  0  0  0  0  0  0
   -0.7270    1.4263   -2.0258 H   0  0  0  0  0  0  0  0  0  0  0  0
    0.1384   -2.5241   -0.5254 H   0  0  0  0  0  0  0  0  0  0  0  0
    1.3532   -1.6488   -1.4549 H   0  0  0  0  0  0  0  0  0  0  0  0
   -2.4857    0.1592   -0.6803 H   0  0  0  0  0  0  0  0  0  0  0  0
   -2.1321   -1.4548   -0.0673 H   0  0  0  0  0  0  0  0  0  0  0  0
    2.5149    0.3834   -0.4411 H   0  0  0  0  0  0  0  0  0  0  0  0
    2.1028    0.9120    1.1887 H   0  0  0  0  0  0  0  0  0  0  0  0
   -0.1677    1.9815    1.6469 H   0  0  0  0  0  0  0  0  0  0  0  0
   -1.3238    2.1915    0.3335 H   0  0  0  0  0  0  0  0  0  0  0  0
   -0.4584   -1.7588    1.8337 H   0  0  0  0  0  0  0  0  0  0  0  0
    0.3441   -0.3550    2.5341 H   0  0  0  0  0  0  0  0  0  0  0  0
    1.7260    3.3712    0.6848 C   0  0  0  0  0  0  0  0  0  0  0  0
    0.0977    3.6669   -1.1645 C   0  0  0  0  0  0  0  0  0  0  0  0
    2.3064    2.6267   -1.6104 C   0  0  0  0  0  0  0  0  0  0  0  0
    2.7446   -1.2253    2.4335 C   0  0  0  0  0  0  0  0  0  0  0  0
    3.3252   -1.9697    0.1384 C   0  0  0  0  0  0  0  0  0  0  0  0
    1.6144   -3.2023    1.4472 C   0  0  0  0  0  0  0  0  0  0  0  0
    2.1460    4.3542    0.4721 H   0  0  0  0  0  0  0  0  0  0  0  0
    2.5036    2.7247    1.0917 H   0  0  0  0  0  0  0  0  0  0  0  0
    0.9196    3.4706    1.4114 H   0  0  0  0  0  0  0  0  0  0  0  0
    0.5177    4.6500   -1.3772 H   0  0  0  0  0  0  0  0  0  0  0  0
   -0.7094    3.7665   -0.4387 H   0  0  0  0  0  0  0  0  0  0  0  0
   -0.2933    3.2327   -2.0847 H   0  0  0  0  0  0  0  0  0  0  0  0
    2.7265    3.6098   -1.8230 H   0  0  0  0  0  0  0  0  0  0  0  0
    1.9166    2.1920   -2.5308 H   0  0  0  0  0  0  0  0  0  0  0  0
    3.0843    1.9799   -1.2045 H   0  0  0  0  0  0  0  0  0  0  0  0
    3.5218   -1.8724    2.8400 H   0  0  0  0  0  0  0  0  0  0  0  0
    1.9382   -1.1262    3.1602 H   0  0  0  0  0  0  0  0  0  0  0  0
    3.1651   -0.2422    2.2217 H   0  0  0  0  0  0  0  0  0  0  0  0
    4.1025   -2.6167    0.5449 H   0  0  0  0  0  0  0  0  0  0  0  0
    3.7460   -0.9869   -0.0745 H   0  0  0  0  0  0  0  0  0  0  0  0
    2.9356   -2.4047   -0.7819 H   0  0  0  0  0  0  0  0  0  0  0  0
    2.3916   -3.8494    1.8537 H   0  0  0  0  0  0  0  0  0  0  0  0
    1.2239   -3.6381    0.5275 H   0  0  0  0  0  0  0  0  0  0  0  0
    0.8075   -3.1041    2.1734 H   0  0  0  0  0  0  0  0  0  0  0  0
    1    5  1  0  0  0  0
    1    6  1  0  0  0  0
    1    7  1  0  0  0  0
    1   11  1  0  0  0  0
    2    5  1  0  0  0  0
    2    8  1  0  0  0  0
    2    9  1  0  0  0  0
    2   12  1  0  0  0  0
    3    6  1  0  0  0  0
    3    8  1  0  0  0  0
    3   10  1  0  0  0  0
    3   13  1  0  0  0  0
    4    7  1  0  0  0  0
    4    9  1  0  0  0  0
    4   10  1  0  0  0  0
    4   14  1  0  0  0  0
    5   15  1  0  0  0  0
    5   16  1  0  0  0  0
    6   17  1  0  0  0  0
    6   18  1  0  0  0  0
    7   19  1  0  0  0  0
    7   20  1  0  0  0  0
    8   21  1  0  0  0  0
    8   22  1  0  0  0  0
    9   23  1  0  0  0  0
    9   24  1  0  0  0  0
   10   25  1  0  0  0  0
   10   26  1  0  0  0  0
   12   27  1  0  0  0  0
   12   28  1  0  0  0  0
   12   29  1  0  0  0  0
   13   30  1  0  0  0  0
   13   31  1  0  0  0  0
   13   32  1  0  0  0  0
   27   33  1  0  0  0  0
   27   34  1  0  0  0  0
   27   35  1  0  0  0  0
   28   36  1  0  0  0  0
   28   37  1  0  0  0  0
   28   38  1  0  0  0  0
   29   39  1  0  0  0  0
   29   40  1  0  0  0  0
   29   41  1  0  0  0  0
   30   42  1  0  0  0  0
   30   43  1  0  0  0  0
   30   44  1  0  0  0  0
   31   45  1  0  0  0  0
   31   46  1  0  0  0  0
   31   47  1  0  0  0  0
   32   48  1  0  0  0  0
   32   49  1  0  0  0  0
   32   50  1  0  0  0  0
M  END
$$$$
