guest10

verachem
   24   24  0  0  0  0  0  0  0  0999 V2000
    1.3280    6.8790   16.5650 C   0  0  0  0  0  0  0  0  0  0  0  0
    0.4100    7.7210   16.4960 O   0  0  0  0  0  0  0  0  0  0  0  0
    1.1920    5.6480   16.3600 O   0  0  0  0  0  0  0  0  0  0  0  0
    2.7630    7.2550   16.8760 C   0  0  2  0  0  0  0  0  0  0  0  0
    3.2400    7.1530   15.5070 N   0  3  0  0  0  0  0  0  0  0  0  0
    3.4730    6.2520   17.7950 C   0  0  0  0  0  0  0  0  0  0  0  0
    7.7750    6.7050   17.9250 C   0  0  0  0  0  0  0  0  0  0  0  0
    6.9470    7.6740   18.5080 C   0  0  0  0  0  0  0  0  0  0  0  0
    5.5520    7.5240   18.4670 C   0  0  0  0  0  0  0  0  0  0  0  0
    4.9790    6.4070   17.8400 C   0  0  0  0  0  0  0  0  0  0  0  0
    7.2060    5.5850   17.3020 C   0  0  0  0  0  0  0  0  0  0  0  0
    5.8110    5.4350   17.2600 C   0  0  0  0  0  0  0  0  0  0  0  0
    0.7910    5.6140   15.4560 H   0  0  0  0  0  0  0  0  0  0  0  0
    2.9150    8.2040   17.4110 H   0  0  0  0  0  0  0  0  0  0  0  0
    2.8590    7.8510   14.8530 H   0  0  0  0  0  0  0  0  0  0  0  0
    3.2350    6.2040   15.1060 H   0  0  0  0  0  0  0  0  0  0  0  0
    4.2380    7.3930   15.5870 H   0  0  0  0  0  0  0  0  0  0  0  0
    3.2330    5.2320   17.4610 H   0  0  0  0  0  0  0  0  0  0  0  0
    3.0760    6.3630   18.8150 H   0  0  0  0  0  0  0  0  0  0  0  0
    8.8690    6.8220   17.9550 H   0  0  0  0  0  0  0  0  0  0  0  0
    7.3910    8.5520   18.9990 H   0  0  0  0  0  0  0  0  0  0  0  0
    4.9060    8.2860   18.9280 H   0  0  0  0  0  0  0  0  0  0  0  0
    7.8540    4.8220   16.8450 H   0  0  0  0  0  0  0  0  0  0  0  0
    5.3690    4.5540   16.7720 H   0  0  0  0  0  0  0  0  0  0  0  0
    1    2  2  0  0  0  0
    1    3  1  0  0  0  0
    1    4  1  0  0  0  0
    3   13  1  0  0  0  0
    4    5  1  0  0  0  0
    4    6  1  0  0  0  0
    4   14  1  0  0  0  0
    5   15  1  0  0  0  0
    5   16  1  0  0  0  0
    5   17  1  0  0  0  0
    6   10  1  0  0  0  0
    6   18  1  0  0  0  0
    6   19  1  0  0  0  0
    7    8  2  0  0  0  0
    7   11  1  0  0  0  0
    7   20  1  0  0  0  0
    8    9  1  0  0  0  0
    8   21  1  0  0  0  0
    9   10  2  0  0  0  0
    9   22  1  0  0  0  0
   10   12  1  0  0  0  0
   11   12  2  0  0  0  0
   11   23  1  0  0  0  0
   12   24  1  0  0  0  0
M  END
$$$$
