guest16

verachem
   26   25  0  0  0  0  0  0  0  0999 V2000
    5.2722    1.9285    0.0000 C   0  0  0  0  0  0  0  0  0  0  0  0
    6.7362    1.8357    0.0000 N   0  3  0  0  0  0  0  0  0  0  0  0
    4.6175    0.5435    0.0000 C   0  0  0  0  0  0  0  0  0  0  0  0
    3.0906    0.6653    0.0000 C   0  0  0  0  0  0  0  0  0  0  0  0
    2.4424   -0.7223    0.0000 C   0  0  0  0  0  0  0  0  0  0  0  0
    0.9156   -0.6006    0.0000 C   0  0  0  0  0  0  0  0  0  0  0  0
    0.2609   -1.9855    0.0000 C   0  0  0  0  0  0  0  0  0  0  0  0
   -1.2031   -1.8926    0.0000 N   0  3  0  0  0  0  0  0  0  0  0  0
    4.9519    2.4759    0.8874 H   0  0  0  0  0  0  0  0  0  0  0  0
    4.9519    2.4759   -0.8874 H   0  0  0  0  0  0  0  0  0  0  0  0
    7.1351    2.7555    0.0000 H   0  0  0  0  0  0  0  0  0  0  0  0
    7.0570    1.3498    0.8159 H   0  0  0  0  0  0  0  0  0  0  0  0
    7.0570    1.3498   -0.8159 H   0  0  0  0  0  0  0  0  0  0  0  0
    4.9367   -0.0015   -0.8887 H   0  0  0  0  0  0  0  0  0  0  0  0
    4.9367   -0.0015    0.8887 H   0  0  0  0  0  0  0  0  0  0  0  0
    2.7722    1.2106    0.8889 H   0  0  0  0  0  0  0  0  0  0  0  0
    2.7722    1.2106   -0.8889 H   0  0  0  0  0  0  0  0  0  0  0  0
    2.7609   -1.2677   -0.8889 H   0  0  0  0  0  0  0  0  0  0  0  0
    2.7609   -1.2677    0.8889 H   0  0  0  0  0  0  0  0  0  0  0  0
    0.5964   -0.0555    0.8887 H   0  0  0  0  0  0  0  0  0  0  0  0
    0.5964   -0.0555   -0.8887 H   0  0  0  0  0  0  0  0  0  0  0  0
    0.5811   -2.5330   -0.8874 H   0  0  0  0  0  0  0  0  0  0  0  0
    0.5811   -2.5330    0.8874 H   0  0  0  0  0  0  0  0  0  0  0  0
   -1.6021   -2.8124    0.0000 H   0  0  0  0  0  0  0  0  0  0  0  0
   -1.5239   -1.4067    0.8159 H   0  0  0  0  0  0  0  0  0  0  0  0
   -1.5239   -1.4067   -0.8159 H   0  0  0  0  0  0  0  0  0  0  0  0
    1    2  1  0  0  0  0
    1    3  1  0  0  0  0
    1    9  1  0  0  0  0
    1   10  1  0  0  0  0
    2   11  1  0  0  0  0
    2   12  1  0  0  0  0
    2   13  1  0  0  0  0
    3    4  1  0  0  0  0
    3   14  1  0  0  0  0
    3   15  1  0  0  0  0
    4    5  1  0  0  0  0
    4   16  1  0  0  0  0
    4   17  1  0  0  0  0
    5    6  1  0  0  0  0
    5   18  1  0  0  0  0
    5   19  1  0  0  0  0
    6    7  1  0  0  0  0
    6   20  1  0  0  0  0
    6   21  1  0  0  0  0
    7    8  1  0  0  0  0
    7   22  1  0  0  0  0
    7   23  1  0  0  0  0
    8   24  1  0  0  0  0
    8   25  1  0  0  0  0
    8   26  1  0  0  0  0
M  END
$$$$
