guest8

verachem
   50   52  0  0  0  0  0  0  0  0999 V2000
   -1.0220    0.8830   -0.5280 C   0  0  0  0  0  0  0  0  0  0  0  0
    1.0360   -0.8850    0.5000 C   0  0  0  0  0  0  0  0  0  0  0  0
   -1.1620   -0.4920   -0.5380 C   0  0  0  0  0  0  0  0  0  0  0  0
    1.1720    0.4910    0.5180 C   0  0  0  0  0  0  0  0  0  0  0  0
    0.1620    1.3620    0.0020 C   0  0  0  0  0  0  0  0  0  0  0  0
   -0.1430   -1.3640   -0.0400 C   0  0  0  0  0  0  0  0  0  0  0  0
   -1.8680   -2.6330   -0.7870 C   0  0  0  0  0  0  0  0  0  0  0  0
    1.8760    2.6310    0.7700 C   0  0  0  0  0  0  0  0  0  0  0  0
   -4.5060   -5.3490   -0.1940 C   0  0  0  0  0  0  0  0  0  0  0  0
    3.1900    5.4520    3.0080 C   0  0  0  0  0  0  0  0  0  0  0  0
   -3.3680   -0.7630   -1.6640 C   0  0  0  0  0  0  0  0  0  0  0  0
    3.4570    0.7550    1.4740 C   0  0  0  0  0  0  0  0  0  0  0  0
   -0.2460    3.8120   -0.0030 C   0  0  0  0  0  0  0  0  0  0  0  0
    0.0520   -3.7980    0.4180 C   0  0  0  0  0  0  0  0  0  0  0  0
   -2.7300   -3.8160   -1.1020 C   0  0  0  0  0  0  0  0  0  0  0  0
    2.7040    3.8180    1.1580 C   0  0  0  0  0  0  0  0  0  0  0  0
   -3.6160   -4.1520    0.0930 C   0  0  0  0  0  0  0  0  0  0  0  0
    2.3660    4.2490    2.5810 C   0  0  0  0  0  0  0  0  0  0  0  0
   -2.2280   -1.2980   -0.9650 N   0  3  0  0  0  0  0  0  0  0  0  0
    2.2060    1.2980    1.0130 N   0  0  0  0  0  0  0  0  0  0  0  0
    0.6330    2.6780    0.1390 N   0  3  0  0  0  0  0  0  0  0  0  0
   -0.5880   -2.6830   -0.2340 N   0  0  0  0  0  0  0  0  0  0  0  0
   -1.7540    1.5120   -0.8940 H   0  0  0  0  0  0  0  0  0  0  0  0
    1.7680   -1.5140    0.8660 H   0  0  0  0  0  0  0  0  0  0  0  0
   -5.1140   -5.5560    0.6620 H   0  0  0  0  0  0  0  0  0  0  0  0
   -3.9110   -6.2030   -0.4410 H   0  0  0  0  0  0  0  0  0  0  0  0
   -5.1390   -5.1260   -1.0280 H   0  0  0  0  0  0  0  0  0  0  0  0
    2.9280    5.7270    4.0080 H   0  0  0  0  0  0  0  0  0  0  0  0
    3.0220    6.2720    2.3420 H   0  0  0  0  0  0  0  0  0  0  0  0
    4.2290    5.1970    2.9740 H   0  0  0  0  0  0  0  0  0  0  0  0
   -3.3490    0.3060   -1.6130 H   0  0  0  0  0  0  0  0  0  0  0  0
   -4.2740   -1.1380   -1.2360 H   0  0  0  0  0  0  0  0  0  0  0  0
   -3.3270   -1.0670   -2.6890 H   0  0  0  0  0  0  0  0  0  0  0  0
    3.3760   -0.3090    1.5560 H   0  0  0  0  0  0  0  0  0  0  0  0
    3.7200    1.1800    2.4200 H   0  0  0  0  0  0  0  0  0  0  0  0
    4.2260    0.9950    0.7700 H   0  0  0  0  0  0  0  0  0  0  0  0
   -1.1240    3.5190   -0.5390 H   0  0  0  0  0  0  0  0  0  0  0  0
    0.2540    4.6060   -0.5170 H   0  0  0  0  0  0  0  0  0  0  0  0
   -0.5280    4.1620    0.9680 H   0  0  0  0  0  0  0  0  0  0  0  0
    1.0350   -3.5130    0.7310 H   0  0  0  0  0  0  0  0  0  0  0  0
    0.1030   -4.6350   -0.2460 H   0  0  0  0  0  0  0  0  0  0  0  0
   -0.5220   -4.0810    1.2760 H   0  0  0  0  0  0  0  0  0  0  0  0
   -2.1200   -4.6580   -1.3560 H   0  0  0  0  0  0  0  0  0  0  0  0
   -3.3530   -3.5770   -1.9380 H   0  0  0  0  0  0  0  0  0  0  0  0
    2.5320    4.6250    0.4770 H   0  0  0  0  0  0  0  0  0  0  0  0
    3.7380    3.5460    1.1160 H   0  0  0  0  0  0  0  0  0  0  0  0
   -3.0110   -4.3450    0.9530 H   0  0  0  0  0  0  0  0  0  0  0  0
   -4.2480   -3.3090    0.2810 H   0  0  0  0  0  0  0  0  0  0  0  0
    1.3230    4.4780    2.6550 H   0  0  0  0  0  0  0  0  0  0  0  0
    2.6020    3.4380    3.2370 H   0  0  0  0  0  0  0  0  0  0  0  0
    1    3  2  0  0  0  0
    1    5  1  0  0  0  0
    1   23  1  0  0  0  0
    2    4  1  0  0  0  0
    2    6  2  0  0  0  0
    2   24  1  0  0  0  0
    3    6  1  0  0  0  0
    3   19  1  0  0  0  0
    4    5  2  0  0  0  0
    4   20  1  0  0  0  0
    5   21  1  0  0  0  0
    6   22  1  0  0  0  0
    7   15  1  0  0  0  0
    7   19  2  0  0  0  0
    7   22  1  0  0  0  0
    8   16  1  0  0  0  0
    8   20  1  0  0  0  0
    8   21  2  0  0  0  0
    9   17  1  0  0  0  0
    9   25  1  0  0  0  0
    9   26  1  0  0  0  0
    9   27  1  0  0  0  0
   10   18  1  0  0  0  0
   10   28  1  0  0  0  0
   10   29  1  0  0  0  0
   10   30  1  0  0  0  0
   11   19  1  0  0  0  0
   11   31  1  0  0  0  0
   11   32  1  0  0  0  0
   11   33  1  0  0  0  0
   12   20  1  0  0  0  0
   12   34  1  0  0  0  0
   12   35  1  0  0  0  0
   12   36  1  0  0  0  0
   13   21  1  0  0  0  0
   13   37  1  0  0  0  0
   13   38  1  0  0  0  0
   13   39  1  0  0  0  0
   14   22  1  0  0  0  0
   14   40  1  0  0  0  0
   14   41  1  0  0  0  0
   14   42  1  0  0  0  0
   15   17  1  0  0  0  0
   15   43  1  0  0  0  0
   15   44  1  0  0  0  0
   16   18  1  0  0  0  0
   16   45  1  0  0  0  0
   16   46  1  0  0  0  0
   17   47  1  0  0  0  0
   17   48  1  0  0  0  0
   18   49  1  0  0  0  0
   18   50  1  0  0  0  0
M  END
$$$$
