guest1

verachem
   32   34  0  0  0  0  0  0  0  0999 V2000
   -1.0220    0.8830   -0.5280 C   0  0  0  0  0  0  0  0  0  0  0  0
    1.0360   -0.8850    0.5000 C   0  0  0  0  0  0  0  0  0  0  0  0
   -1.1620   -0.4920   -0.5380 C   0  0  0  0  0  0  0  0  0  0  0  0
    1.1720    0.4910    0.5180 C   0  0  0  0  0  0  0  0  0  0  0  0
    0.1620    1.3620    0.0020 C   0  0  0  0  0  0  0  0  0  0  0  0
   -0.1430   -1.3640   -0.0400 C   0  0  0  0  0  0  0  0  0  0  0  0
   -1.8680   -2.6330   -0.7870 C   0  0  0  0  0  0  0  0  0  0  0  0
    1.8760    2.6310    0.7700 C   0  0  0  0  0  0  0  0  0  0  0  0
   -3.3680   -0.7630   -1.6640 C   0  0  0  0  0  0  0  0  0  0  0  0
    3.4570    0.7550    1.4740 C   0  0  0  0  0  0  0  0  0  0  0  0
   -0.2460    3.8120   -0.0030 C   0  0  0  0  0  0  0  0  0  0  0  0
    0.0520   -3.7980    0.4180 C   0  0  0  0  0  0  0  0  0  0  0  0
   -2.2280   -1.2980   -0.9650 N   0  3  0  0  0  0  0  0  0  0  0  0
    2.2060    1.2980    1.0130 N   0  0  0  0  0  0  0  0  0  0  0  0
    0.6330    2.6780    0.1390 N   0  3  0  0  0  0  0  0  0  0  0  0
   -0.5880   -2.6830   -0.2340 N   0  0  0  0  0  0  0  0  0  0  0  0
   -1.7540    1.5120   -0.8940 H   0  0  0  0  0  0  0  0  0  0  0  0
    1.7680   -1.5140    0.8660 H   0  0  0  0  0  0  0  0  0  0  0  0
   -3.3490    0.3060   -1.6130 H   0  0  0  0  0  0  0  0  0  0  0  0
   -4.2740   -1.1380   -1.2360 H   0  0  0  0  0  0  0  0  0  0  0  0
   -3.3270   -1.0670   -2.6890 H   0  0  0  0  0  0  0  0  0  0  0  0
    3.3760   -0.3090    1.5560 H   0  0  0  0  0  0  0  0  0  0  0  0
    3.7200    1.1800    2.4200 H   0  0  0  0  0  0  0  0  0  0  0  0
    4.2260    0.9950    0.7700 H   0  0  0  0  0  0  0  0  0  0  0  0
   -1.1240    3.5190   -0.5390 H   0  0  0  0  0  0  0  0  0  0  0  0
    0.2540    4.6060   -0.5170 H   0  0  0  0  0  0  0  0  0  0  0  0
   -0.5280    4.1620    0.9680 H   0  0  0  0  0  0  0  0  0  0  0  0
    1.0350   -3.5130    0.7310 H   0  0  0  0  0  0  0  0  0  0  0  0
    0.1030   -4.6350   -0.2460 H   0  0  0  0  0  0  0  0  0  0  0  0
   -0.5220   -4.0810    1.2760 H   0  0  0  0  0  0  0  0  0  0  0  0
   -2.4850   -3.4950   -1.0380 H   0  0  0  0  0  0  0  0  0  0  0  0
    2.4890    3.4940    1.0310 H   0  0  0  0  0  0  0  0  0  0  0  0
    1    3  2  0  0  0  0
    1    5  1  0  0  0  0
    1   17  1  0  0  0  0
    2    4  1  0  0  0  0
    2    6  2  0  0  0  0
    2   18  1  0  0  0  0
    3    6  1  0  0  0  0
    3   13  1  0  0  0  0
    4    5  2  0  0  0  0
    4   14  1  0  0  0  0
    5   15  1  0  0  0  0
    6   16  1  0  0  0  0
    7   13  2  0  0  0  0
    7   16  1  0  0  0  0
    7   31  1  0  0  0  0
    8   14  1  0  0  0  0
    8   15  2  0  0  0  0
    8   32  1  0  0  0  0
    9   13  1  0  0  0  0
    9   19  1  0  0  0  0
    9   20  1  0  0  0  0
    9   21  1  0  0  0  0
   10   14  1  0  0  0  0
   10   22  1  0  0  0  0
   10   23  1  0  0  0  0
   10   24  1  0  0  0  0
   11   15  1  0  0  0  0
   11   25  1  0  0  0  0
   11   26  1  0  0  0  0
   11   27  1  0  0  0  0
   12   16  1  0  0  0  0
   12   28  1  0  0  0  0
   12   29  1  0  0  0  0
   12   30  1  0  0  0  0
M  END
$$$$
