guest26

verachem
   34   35  0  0  0  0  0  0  0  0999 V2000
    1.3170   -0.2900    0.6570 C   0  0  0  0  0  0  0  0  0  0  0  0
    1.6140    1.0340    1.3900 C   0  0  0  0  0  0  0  0  0  0  0  0
    0.1610   -0.1080   -0.3440 C   0  0  0  0  0  0  0  0  0  0  0  0
    0.6410    2.1430    0.9450 C   0  0  0  0  0  0  0  0  0  0  0  0
    0.5520    1.0160   -1.3240 C   0  0  0  0  0  0  0  0  0  0  0  0
    0.8050    2.3400   -0.5740 C   0  0  0  0  0  0  0  0  0  0  0  0
   -1.0840    0.3490    0.4410 C   0  0  0  0  0  0  0  0  0  0  0  0
   -0.7980    1.6560    1.2110 C   0  0  0  0  0  0  0  0  0  0  0  0
   -0.1160   -1.4100   -1.1140 C   0  0  0  0  0  0  0  0  0  0  0  0
    0.9360    3.4440    1.7100 C   0  0  0  0  0  0  0  0  0  0  0  0
   -0.4680   -2.5220   -0.2370 N   0  3  0  0  0  0  0  0  0  0  0  0
    0.0670    4.5470    1.3100 N   0  3  0  0  0  0  0  0  0  0  0  0
    2.2130   -0.6380    0.1410 H   0  0  0  0  0  0  0  0  0  0  0  0
    1.0700   -1.0610    1.3870 H   0  0  0  0  0  0  0  0  0  0  0  0
    1.5450    0.8830    2.4680 H   0  0  0  0  0  0  0  0  0  0  0  0
    2.6430    1.3420    1.1970 H   0  0  0  0  0  0  0  0  0  0  0  0
    1.4450    0.7300   -1.8820 H   0  0  0  0  0  0  0  0  0  0  0  0
   -0.2330    1.1560   -2.0680 H   0  0  0  0  0  0  0  0  0  0  0  0
    1.8060    2.7100   -0.8020 H   0  0  0  0  0  0  0  0  0  0  0  0
    0.1120    3.0990   -0.9360 H   0  0  0  0  0  0  0  0  0  0  0  0
   -1.9220    0.4970   -0.2410 H   0  0  0  0  0  0  0  0  0  0  0  0
   -1.3990   -0.4230    1.1430 H   0  0  0  0  0  0  0  0  0  0  0  0
   -0.9470    1.4980    2.2800 H   0  0  0  0  0  0  0  0  0  0  0  0
   -1.5210    2.4150    0.9150 H   0  0  0  0  0  0  0  0  0  0  0  0
   -0.9350   -1.2740   -1.8220 H   0  0  0  0  0  0  0  0  0  0  0  0
    0.7590   -1.7110   -1.6920 H   0  0  0  0  0  0  0  0  0  0  0  0
    0.8120    3.2960    2.7840 H   0  0  0  0  0  0  0  0  0  0  0  0
    1.9670    3.7620    1.5500 H   0  0  0  0  0  0  0  0  0  0  0  0
   -1.3220   -2.3050    0.3070 H   0  0  0  0  0  0  0  0  0  0  0  0
   -0.6480   -3.3780   -0.7910 H   0  0  0  0  0  0  0  0  0  0  0  0
    0.3010   -2.7240    0.4260 H   0  0  0  0  0  0  0  0  0  0  0  0
    0.2890    5.3970    1.8610 H   0  0  0  0  0  0  0  0  0  0  0  0
    0.1990    4.7680    0.3050 H   0  0  0  0  0  0  0  0  0  0  0  0
   -0.9280    4.3050    1.4690 H   0  0  0  0  0  0  0  0  0  0  0  0
    1    2  1  0  0  0  0
    1    3  1  0  0  0  0
    1   13  1  0  0  0  0
    1   14  1  0  0  0  0
    2    4  1  0  0  0  0
    2   15  1  0  0  0  0
    2   16  1  0  0  0  0
    3    5  1  0  0  0  0
    3    7  1  0  0  0  0
    3    9  1  0  0  0  0
    4    6  1  0  0  0  0
    4    8  1  0  0  0  0
    4   10  1  0  0  0  0
    5    6  1  0  0  0  0
    5   17  1  0  0  0  0
    5   18  1  0  0  0  0
    6   19  1  0  0  0  0
    6   20  1  0  0  0  0
    7    8  1  0  0  0  0
    7   21  1  0  0  0  0
    7   22  1  0  0  0  0
    8   23  1  0  0  0  0
    8   24  1  0  0  0  0
    9   11  1  0  0  0  0
    9   25  1  0  0  0  0
    9   26  1  0  0  0  0
   10   12  1  0  0  0  0
   10   27  1  0  0  0  0
   10   28  1  0  0  0  0
   11   29  1  0  0  0  0
   11   30  1  0  0  0  0
   11   31  1  0  0  0  0
   12   32  1  0  0  0  0
   12   33  1  0  0  0  0
   12   34  1  0  0  0  0
M  END
$$$$
