guest24

verachem
   29   31  0  0  0  0  0  0  0  0999 V2000
   11.7175   -6.8650   -1.5791 C   0  0  2  0  0  0  0  0  0  0  0  0
   12.3461   -7.3534   -0.2628 C   0  0  0  0  0  0  0  0  0  0  0  0
   13.7080   -6.6706   -0.0471 C   0  0  1  0  0  0  0  0  0  0  0  0
   14.6366   -7.0194   -1.2232 C   0  0  0  0  0  0  0  0  0  0  0  0
   14.0268   -6.5203   -2.5490 C   0  0  1  0  0  0  0  0  0  0  0  0
   12.6616   -7.2124   -2.7461 C   0  0  0  0  0  0  0  0  0  0  0  0
   11.5255   -5.3378   -1.5077 C   0  0  0  0  0  0  0  0  0  0  0  0
   13.7803   -4.9996   -2.5103 C   0  0  1  0  0  0  0  0  0  0  0  0
   12.8873   -4.6402   -1.3069 C   0  0  2  0  0  0  0  0  0  0  0  0
   13.5019   -5.1471    0.0136 C   0  0  0  0  0  0  0  0  0  0  0  0
   15.0701   -4.2631   -2.4417 N   0  3  0  0  0  0  0  0  0  0  0  0
   10.7480   -7.3531   -1.7296 H   0  0  0  0  0  0  0  0  0  0  0  0
   11.6774   -7.1308    0.5776 H   0  0  0  0  0  0  0  0  0  0  0  0
   12.4724   -8.4427   -0.2890 H   0  0  0  0  0  0  0  0  0  0  0  0
   14.1513   -7.0221    0.8917 H   0  0  0  0  0  0  0  0  0  0  0  0
   15.6285   -6.5820   -1.0628 H   0  0  0  0  0  0  0  0  0  0  0  0
   14.7833   -8.1057   -1.2699 H   0  0  0  0  0  0  0  0  0  0  0  0
   14.6911   -6.7794   -3.3816 H   0  0  0  0  0  0  0  0  0  0  0  0
   12.7976   -8.2991   -2.8075 H   0  0  0  0  0  0  0  0  0  0  0  0
   12.2140   -6.8944   -3.6959 H   0  0  0  0  0  0  0  0  0  0  0  0
   11.0523   -4.9775   -2.4296 H   0  0  0  0  0  0  0  0  0  0  0  0
   10.8485   -5.0832   -0.6830 H   0  0  0  0  0  0  0  0  0  0  0  0
   13.3110   -4.6671   -3.4440 H   0  0  0  0  0  0  0  0  0  0  0  0
   12.7372   -3.5556   -1.2519 H   0  0  0  0  0  0  0  0  0  0  0  0
   12.8383   -4.8960    0.8504 H   0  0  0  0  0  0  0  0  0  0  0  0
   14.4551   -4.6456    0.2162 H   0  0  0  0  0  0  0  0  0  0  0  0
   15.6609   -4.4762   -3.2567 H   0  0  0  0  0  0  0  0  0  0  0  0
   15.6205   -4.4851   -1.6032 H   0  0  0  0  0  0  0  0  0  0  0  0
   14.9151   -3.2460   -2.4415 H   0  0  0  0  0  0  0  0  0  0  0  0
    1    2  1  0  0  0  0
    1    6  1  0  0  0  0
    1    7  1  0  0  0  0
    1   12  1  0  0  0  0
    2    3  1  0  0  0  0
    2   13  1  0  0  0  0
    2   14  1  0  0  0  0
    3    4  1  0  0  0  0
    3   10  1  0  0  0  0
    3   15  1  0  0  0  0
    4    5  1  0  0  0  0
    4   16  1  0  0  0  0
    4   17  1  0  0  0  0
    5    6  1  0  0  0  0
    5    8  1  0  0  0  0
    5   18  1  0  0  0  0
    6   19  1  0  0  0  0
    6   20  1  0  0  0  0
    7    9  1  0  0  0  0
    7   21  1  0  0  0  0
    7   22  1  0  0  0  0
    8    9  1  0  0  0  0
    8   11  1  0  0  0  0
    8   23  1  0  0  0  0
    9   10  1  0  0  0  0
    9   24  1  0  0  0  0
   10   25  1  0  0  0  0
   10   26  1  0  0  0  0
   11   27  1  0  0  0  0
   11   28  1  0  0  0  0
   11   29  1  0  0  0  0
M  END
$$$$
