guest19

verachem
   24   24  0  0  0  0  0  0  0  0999 V2000
   -3.4780    0.0000   -1.0930 N   0  3  0  0  0  0  0  0  0  0  0  0
    3.4770    0.0000   -1.0930 N   0  3  0  0  0  0  0  0  0  0  0  0
   -1.3950   -0.0000    0.2730 C   0  0  0  0  0  0  0  0  0  0  0  0
    1.3950    0.0000    0.2730 C   0  0  0  0  0  0  0  0  0  0  0  0
   -2.8860   -0.0000    0.2730 C   0  0  0  0  0  0  0  0  0  0  0  0
    2.8860    0.0000    0.2730 C   0  0  0  0  0  0  0  0  0  0  0  0
   -0.6970    1.2080    0.2730 C   0  0  0  0  0  0  0  0  0  0  0  0
    0.6970    1.2080    0.2730 C   0  0  0  0  0  0  0  0  0  0  0  0
   -0.6970   -1.2080    0.2730 C   0  0  0  0  0  0  0  0  0  0  0  0
    0.6980   -1.2080    0.2730 C   0  0  0  0  0  0  0  0  0  0  0  0
   -3.2850   -0.8830    0.7840 H   0  0  0  0  0  0  0  0  0  0  0  0
   -3.2850    0.8830    0.7850 H   0  0  0  0  0  0  0  0  0  0  0  0
    3.2850    0.8830    0.7840 H   0  0  0  0  0  0  0  0  0  0  0  0
    3.2850   -0.8830    0.7840 H   0  0  0  0  0  0  0  0  0  0  0  0
   -1.2290    2.1560    0.2710 H   0  0  0  0  0  0  0  0  0  0  0  0
    1.2290    2.1560    0.2710 H   0  0  0  0  0  0  0  0  0  0  0  0
   -1.2290   -2.1560    0.2710 H   0  0  0  0  0  0  0  0  0  0  0  0
    1.2300   -2.1560    0.2710 H   0  0  0  0  0  0  0  0  0  0  0  0
   -3.1920   -0.8300   -1.6290 H   0  0  0  0  0  0  0  0  0  0  0  0
   -3.1920    0.8310   -1.6290 H   0  0  0  0  0  0  0  0  0  0  0  0
   -4.5050    0.0000   -1.0510 H   0  0  0  0  0  0  0  0  0  0  0  0
    4.5050    0.0000   -1.0520 H   0  0  0  0  0  0  0  0  0  0  0  0
    3.1910    0.8300   -1.6290 H   0  0  0  0  0  0  0  0  0  0  0  0
    3.1910   -0.8300   -1.6290 H   0  0  0  0  0  0  0  0  0  0  0  0
    1    5  1  0  0  0  0
    1   19  1  0  0  0  0
    1   20  1  0  0  0  0
    1   21  1  0  0  0  0
    2    6  1  0  0  0  0
    2   22  1  0  0  0  0
    2   23  1  0  0  0  0
    2   24  1  0  0  0  0
    3    5  1  0  0  0  0
    3    7  2  0  0  0  0
    3    9  1  0  0  0  0
    4    6  1  0  0  0  0
    4    8  2  0  0  0  0
    4   10  1  0  0  0  0
    5   11  1  0  0  0  0
    5   12  1  0  0  0  0
    6   13  1  0  0  0  0
    6   14  1  0  0  0  0
    7    8  1  0  0  0  0
    7   15  1  0  0  0  0
    8   16  1  0  0  0  0
    9   10  2  0  0  0  0
    9   17  1  0  0  0  0
   10   18  1  0  0  0  0
M  END
$$$$
