guest23

verachem
   36   39  0  0  0  0  0  0  0  0999 V2000
   -1.6929    0.2332   -1.5584 C   0  0  0  0  0  0  0  0  0  0  0  0
    0.4203    1.2319   -0.5223 C   0  0  0  0  0  0  0  0  0  0  0  0
   -1.5044    0.3917    0.9145 C   0  0  1  0  0  0  0  0  0  0  0  0
   -1.8088    2.4572   -0.4553 C   0  0  2  0  0  0  0  0  0  0  0  0
   -0.1718    0.3819   -1.6724 C   0  0  0  0  0  0  0  0  0  0  0  0
   -2.0429   -0.4564   -0.2387 C   0  0  0  0  0  0  0  0  0  0  0  0
   -2.3481    1.6143   -1.6121 C   0  0  0  0  0  0  0  0  0  0  0  0
    0.0180    0.5287    0.7924 C   0  0  0  0  0  0  0  0  0  0  0  0
   -0.2877    2.6029   -0.5833 C   0  0  0  0  0  0  0  0  0  0  0  0
   -2.1503    1.7799    0.8753 C   0  0  0  0  0  0  0  0  0  0  0  0
   -2.0615   -0.3717   -2.3886 H   0  0  0  0  0  0  0  0  0  0  0  0
    1.8919    1.3938   -0.6054 N   0  3  0  0  0  0  0  0  0  0  0  0
   -2.2704    3.4456   -0.4859 H   0  0  0  0  0  0  0  0  0  0  0  0
    0.2575   -0.6213   -1.6580 H   0  0  0  0  0  0  0  0  0  0  0  0
    0.0404    0.8511   -2.6345 H   0  0  0  0  0  0  0  0  0  0  0  0
   -3.1254   -0.5595   -0.1498 H   0  0  0  0  0  0  0  0  0  0  0  0
   -1.5955   -1.4511   -0.2085 H   0  0  0  0  0  0  0  0  0  0  0  0
   -2.1188    2.0984   -2.5626 H   0  0  0  0  0  0  0  0  0  0  0  0
   -3.4311    1.5147   -1.5254 H   0  0  0  0  0  0  0  0  0  0  0  0
    0.4715   -0.4630    0.8267 H   0  0  0  0  0  0  0  0  0  0  0  0
    0.3664    1.0895    1.6589 H   0  0  0  0  0  0  0  0  0  0  0  0
    0.0475    3.2531    0.2240 H   0  0  0  0  0  0  0  0  0  0  0  0
   -0.0524    3.0909   -1.5303 H   0  0  0  0  0  0  0  0  0  0  0  0
   -3.2328    1.6852    0.9731 H   0  0  0  0  0  0  0  0  0  0  0  0
   -1.7800    2.3845    1.7046 H   0  0  0  0  0  0  0  0  0  0  0  0
    2.5260    2.1252    0.3566 C   0  0  0  0  0  0  0  0  0  0  0  0
    2.6350    0.8378   -1.6088 C   0  0  0  0  0  0  0  0  0  0  0  0
   -1.7487   -0.0933    1.8611 H   0  0  0  0  0  0  0  0  0  0  0  0
    2.1880    0.2516   -2.3932 H   0  0  0  0  0  0  0  0  0  0  0  0
    1.9695    2.5771    1.1616 H   0  0  0  0  0  0  0  0  0  0  0  0
    3.9204    2.3189    0.3387 C   0  0  0  0  0  0  0  0  0  0  0  0
    4.6892    1.7538   -0.6842 C   0  0  0  0  0  0  0  0  0  0  0  0
    4.0322    1.0053   -1.6668 C   0  0  0  0  0  0  0  0  0  0  0  0
    4.3933    2.9042    1.1161 H   0  0  0  0  0  0  0  0  0  0  0  0
    5.7632    1.8919   -0.7146 H   0  0  0  0  0  0  0  0  0  0  0  0
    4.5951    0.5536   -2.4729 H   0  0  0  0  0  0  0  0  0  0  0  0
    1    5  1  0  0  0  0
    1    6  1  0  0  0  0
    1    7  1  0  0  0  0
    1   11  1  0  0  0  0
    2    5  1  0  0  0  0
    2    8  1  0  0  0  0
    2    9  1  0  0  0  0
    2   12  1  0  0  0  0
    3    6  1  0  0  0  0
    3    8  1  0  0  0  0
    3   10  1  0  0  0  0
    3   28  1  0  0  0  0
    4    7  1  0  0  0  0
    4    9  1  0  0  0  0
    4   10  1  0  0  0  0
    4   13  1  0  0  0  0
    5   14  1  0  0  0  0
    5   15  1  0  0  0  0
    6   16  1  0  0  0  0
    6   17  1  0  0  0  0
    7   18  1  0  0  0  0
    7   19  1  0  0  0  0
    8   20  1  0  0  0  0
    8   21  1  0  0  0  0
    9   22  1  0  0  0  0
    9   23  1  0  0  0  0
   10   24  1  0  0  0  0
   10   25  1  0  0  0  0
   12   26  2  0  0  0  0
   12   27  1  0  0  0  0
   26   30  1  0  0  0  0
   26   31  1  0  0  0  0
   27   29  1  0  0  0  0
   27   33  2  0  0  0  0
   31   32  2  0  0  0  0
   31   34  1  0  0  0  0
   32   33  1  0  0  0  0
   32   35  1  0  0  0  0
   33   36  1  0  0  0  0
M  END
$$$$
