guest20

verachem
   30   31  0  0  0  0  0  0  0  0999 V2000
   -0.7414   -0.1657    1.4069 C   0  0  0  0  0  0  0  0  0  0  0  0
    0.7556   -0.4935    1.2336 C   0  0  0  0  0  0  0  0  0  0  0  0
    1.2703    0.0036   -0.1318 C   0  0  0  0  0  0  0  0  0  0  0  0
   -1.2939    0.5472    0.1567 C   0  0  0  0  0  0  0  0  0  0  0  0
   -1.0624   -0.3690   -1.0618 C   0  0  0  0  0  0  0  0  0  0  0  0
    0.4385   -0.6778   -1.2371 C   0  0  0  0  0  0  0  0  0  0  0  0
   -0.4813    1.8397   -0.0592 C   0  0  0  0  0  0  0  0  0  0  0  0
    1.0199    1.5228   -0.2168 C   0  0  0  0  0  0  0  0  0  0  0  0
   -2.7861    0.8643    0.3232 C   0  0  0  0  0  0  0  0  0  0  0  0
   -3.2366    1.5194   -0.8515 O   0  0  0  0  0  0  0  0  0  0  0  0
   -0.8822    0.4621    2.2877 H   0  0  0  0  0  0  0  0  0  0  0  0
   -1.3009   -1.0831    1.5937 H   0  0  0  0  0  0  0  0  0  0  0  0
    0.9104   -1.5696    1.3219 H   0  0  0  0  0  0  0  0  0  0  0  0
    1.3295   -0.0357    2.0402 H   0  0  0  0  0  0  0  0  0  0  0  0
   -1.4472    0.1102   -1.9635 H   0  0  0  0  0  0  0  0  0  0  0  0
   -1.6250   -1.2960   -0.9500 H   0  0  0  0  0  0  0  0  0  0  0  0
    0.6032   -1.7553   -1.2262 H   0  0  0  0  0  0  0  0  0  0  0  0
    0.7735   -0.3318   -2.2164 H   0  0  0  0  0  0  0  0  0  0  0  0
   -0.6337    2.5273    0.7728 H   0  0  0  0  0  0  0  0  0  0  0  0
   -0.8433    2.3582   -0.9486 H   0  0  0  0  0  0  0  0  0  0  0  0
    1.3778    1.9038   -1.1746 H   0  0  0  0  0  0  0  0  0  0  0  0
    1.5952    2.0440    0.5485 H   0  0  0  0  0  0  0  0  0  0  0  0
   -2.9340    1.5071    1.1982 H   0  0  0  0  0  0  0  0  0  0  0  0
   -3.3478   -0.0630    0.4815 H   0  0  0  0  0  0  0  0  0  0  0  0
   -4.1625    1.7363   -0.7916 H   0  0  0  0  0  0  0  0  0  0  0  0
    2.7624   -0.3122   -0.3013 C   0  0  0  0  0  0  0  0  0  0  0  0
    3.1777    0.1641   -1.5712 O   0  0  0  0  0  0  0  0  0  0  0  0
    2.9240   -1.3935   -0.2286 H   0  0  0  0  0  0  0  0  0  0  0  0
    3.3379    0.1736    0.4946 H   0  0  0  0  0  0  0  0  0  0  0  0
    4.1023   -0.0117   -1.7197 H   0  0  0  0  0  0  0  0  0  0  0  0
    1    2  1  0  0  0  0
    1    4  1  0  0  0  0
    1   11  1  0  0  0  0
    1   12  1  0  0  0  0
    2    3  1  0  0  0  0
    2   13  1  0  0  0  0
    2   14  1  0  0  0  0
    3    6  1  0  0  0  0
    3    8  1  0  0  0  0
    3   26  1  0  0  0  0
    4    5  1  0  0  0  0
    4    7  1  0  0  0  0
    4    9  1  0  0  0  0
    5    6  1  0  0  0  0
    5   15  1  0  0  0  0
    5   16  1  0  0  0  0
    6   17  1  0  0  0  0
    6   18  1  0  0  0  0
    7    8  1  0  0  0  0
    7   19  1  0  0  0  0
    7   20  1  0  0  0  0
    8   21  1  0  0  0  0
    8   22  1  0  0  0  0
    9   10  1  0  0  0  0
    9   23  1  0  0  0  0
    9   24  1  0  0  0  0
   10   25  1  0  0  0  0
   26   27  1  0  0  0  0
   26   28  1  0  0  0  0
   26   29  1  0  0  0  0
   27   30  1  0  0  0  0
M  END
$$$$
