guest17

verachem
   32   34  0  0  0  0  0  0  0  0999 V2000
   -0.5429   -0.6108   -1.2887 C   0  0  0  0  0  0  0  0  0  0  0  0
    0.6056    1.4099   -0.3040 C   0  0  2  0  0  0  0  0  0  0  0  0
    1.1186   -0.9299    0.5847 C   0  0  1  0  0  0  0  0  0  0  0  0
   -1.1268    0.1381    1.0200 C   0  0  0  0  0  0  0  0  0  0  0  0
    0.0468    0.7741   -1.5899 C   0  0  0  0  0  0  0  0  0  0  0  0
    0.5507   -1.5239   -0.7171 C   0  0  0  0  0  0  0  0  0  0  0  0
   -1.6828   -0.4744   -0.2716 C   0  0  0  0  0  0  0  0  0  0  0  0
    1.6853    0.4712    0.2736 C   0  0  0  0  0  0  0  0  0  0  0  0
   -0.5376    1.5236    0.7208 C   0  0  0  0  0  0  0  0  0  0  0  0
   -0.0338   -0.7744    1.5937 C   0  0  0  0  0  0  0  0  0  0  0  0
   -0.9317   -1.0459   -2.2096 H   0  0  0  0  0  0  0  0  0  0  0  0
    1.1687    2.7414   -0.5935 N   0  3  0  0  0  0  0  0  0  0  0  0
    2.1664   -1.8091    1.1350 N   0  3  0  0  0  0  0  0  0  0  0  0
   -1.9326    0.2378    1.7476 H   0  0  0  0  0  0  0  0  0  0  0  0
    0.8451    0.6746   -2.3262 H   0  0  0  0  0  0  0  0  0  0  0  0
   -0.7305    1.4147   -2.0075 H   0  0  0  0  0  0  0  0  0  0  0  0
    0.1299   -2.5098   -0.5168 H   0  0  0  0  0  0  0  0  0  0  0  0
    1.3508   -1.6322   -1.4500 H   0  0  0  0  0  0  0  0  0  0  0  0
   -2.4655    0.1672   -0.6776 H   0  0  0  0  0  0  0  0  0  0  0  0
   -2.1097   -1.4556   -0.0613 H   0  0  0  0  0  0  0  0  0  0  0  0
    2.4998    0.3767   -0.4453 H   0  0  0  0  0  0  0  0  0  0  0  0
    2.0864    0.9069    1.1893 H   0  0  0  0  0  0  0  0  0  0  0  0
   -0.1592    1.9626    1.6445 H   0  0  0  0  0  0  0  0  0  0  0  0
   -1.3207    2.1716    0.3257 H   0  0  0  0  0  0  0  0  0  0  0  0
   -0.4602   -1.7530    1.8164 H   0  0  0  0  0  0  0  0  0  0  0  0
    0.3465   -0.3441    2.5207 H   0  0  0  0  0  0  0  0  0  0  0  0
    1.5330    3.1681    0.2392 H   0  0  0  0  0  0  0  0  0  0  0  0
    0.4639    3.3501   -0.9691 H   0  0  0  0  0  0  0  0  0  0  0  0
    1.9132    2.6804   -1.2643 H   0  0  0  0  0  0  0  0  0  0  0  0
    2.5419   -1.4336    1.9871 H   0  0  0  0  0  0  0  0  0  0  0  0
    2.9222   -1.9212    0.4836 H   0  0  0  0  0  0  0  0  0  0  0  0
    1.7949   -2.7199    1.3364 H   0  0  0  0  0  0  0  0  0  0  0  0
    1    5  1  0  0  0  0
    1    6  1  0  0  0  0
    1    7  1  0  0  0  0
    1   11  1  0  0  0  0
    2    5  1  0  0  0  0
    2    8  1  0  0  0  0
    2    9  1  0  0  0  0
    2   12  1  0  0  0  0
    3    6  1  0  0  0  0
    3    8  1  0  0  0  0
    3   10  1  0  0  0  0
    3   13  1  0  0  0  0
    4    7  1  0  0  0  0
    4    9  1  0  0  0  0
    4   10  1  0  0  0  0
    4   14  1  0  0  0  0
    5   15  1  0  0  0  0
    5   16  1  0  0  0  0
    6   17  1  0  0  0  0
    6   18  1  0  0  0  0
    7   19  1  0  0  0  0
    7   20  1  0  0  0  0
    8   21  1  0  0  0  0
    8   22  1  0  0  0  0
    9   23  1  0  0  0  0
    9   24  1  0  0  0  0
   10   25  1  0  0  0  0
   10   26  1  0  0  0  0
   12   27  1  0  0  0  0
   12   28  1  0  0  0  0
   12   29  1  0  0  0  0
   13   30  1  0  0  0  0
   13   31  1  0  0  0  0
   13   32  1  0  0  0  0
M  END
$$$$
