guest3

verachem
   38   40  0  0  0  0  0  0  0  0999 V2000
    3.0810    8.8680   17.7810 C   0  0  0  0  0  0  0  0  0  0  0  0
    2.6740    6.3250   16.3110 C   0  0  0  0  0  0  0  0  0  0  0  0
    1.8220    8.3840   17.4340 C   0  0  0  0  0  0  0  0  0  0  0  0
    3.9280    6.7730   16.7160 C   0  0  0  0  0  0  0  0  0  0  0  0
    4.1260    8.0150   17.4410 C   0  0  0  0  0  0  0  0  0  0  0  0
    1.6210    7.1470   16.7030 C   0  0  0  0  0  0  0  0  0  0  0  0
   -0.4070    8.0450   17.1890 C   0  0  0  0  0  0  0  0  0  0  0  0
    6.1360    6.9780   17.2270 C   0  0  0  0  0  0  0  0  0  0  0  0
    0.2940   10.0930   18.5720 C   0  0  0  0  0  0  0  0  0  0  0  0
    5.4720    4.8520   16.0290 C   0  0  0  0  0  0  0  0  0  0  0  0
    6.1290    9.1220   18.5720 C   0  0  0  0  0  0  0  0  0  0  0  0
   -0.4580    5.8700   15.9020 C   0  0  0  0  0  0  0  0  0  0  0  0
    0.5340    8.9050   17.7160 N   0  3  0  0  0  0  0  0  0  0  0  0
    5.2120    6.1790   16.5910 N   0  0  0  0  0  0  0  0  0  0  0  0
    5.5120    8.0970   17.7300 N   0  3  0  0  0  0  0  0  0  0  0  0
    0.2190    6.9910   16.5620 N   0  0  0  0  0  0  0  0  0  0  0  0
    3.2200    9.8390   18.2830 H   0  0  0  0  0  0  0  0  0  0  0  0
    2.5080    5.3960   15.7410 H   0  0  0  0  0  0  0  0  0  0  0  0
   -1.4960    8.1790   17.2530 H   0  0  0  0  0  0  0  0  0  0  0  0
    7.2090    6.7610   17.3090 H   0  0  0  0  0  0  0  0  0  0  0  0
   -1.0690   10.0180   19.2670 C   0  0  0  0  0  0  0  0  0  0  0  0
    0.3830   11.0100   17.9390 H   0  0  0  0  0  0  0  0  0  0  0  0
    1.1260   10.1510   19.3290 H   0  0  0  0  0  0  0  0  0  0  0  0
    4.9130    4.7090   15.0820 H   0  0  0  0  0  0  0  0  0  0  0  0
    5.1530    4.0630   16.7450 H   0  0  0  0  0  0  0  0  0  0  0  0
    6.5500    4.7020   15.8040 H   0  0  0  0  0  0  0  0  0  0  0  0
    5.5100    9.3000   19.4800 H   0  0  0  0  0  0  0  0  0  0  0  0
    6.2260   10.0830   18.0240 H   0  0  0  0  0  0  0  0  0  0  0  0
    7.1390    8.8170   18.9150 H   0  0  0  0  0  0  0  0  0  0  0  0
   -1.1380    5.3460   16.6040 H   0  0  0  0  0  0  0  0  0  0  0  0
   -1.0610    6.2200   15.0390 H   0  0  0  0  0  0  0  0  0  0  0  0
    0.2820    5.1270   15.5280 H   0  0  0  0  0  0  0  0  0  0  0  0
   -1.2570   11.2430   20.1530 C   0  0  0  0  0  0  0  0  0  0  0  0
   -1.8920    9.9620   18.5220 H   0  0  0  0  0  0  0  0  0  0  0  0
   -1.1500    9.0900   19.8720 H   0  0  0  0  0  0  0  0  0  0  0  0
   -2.2350   11.2240   20.6520 H   0  0  0  0  0  0  0  0  0  0  0  0
   -0.4910   11.3020   20.9370 H   0  0  0  0  0  0  0  0  0  0  0  0
   -1.2060   12.1750   19.5750 H   0  0  0  0  0  0  0  0  0  0  0  0
    1    3  2  0  0  0  0
    1    5  1  0  0  0  0
    1   17  1  0  0  0  0
    2    4  1  0  0  0  0
    2    6  2  0  0  0  0
    2   18  1  0  0  0  0
    3    6  1  0  0  0  0
    3   13  1  0  0  0  0
    4    5  2  0  0  0  0
    4   14  1  0  0  0  0
    5   15  1  0  0  0  0
    6   16  1  0  0  0  0
    7   13  2  0  0  0  0
    7   16  1  0  0  0  0
    7   19  1  0  0  0  0
    8   14  1  0  0  0  0
    8   15  2  0  0  0  0
    8   20  1  0  0  0  0
    9   13  1  0  0  0  0
    9   21  1  0  0  0  0
    9   22  1  0  0  0  0
    9   23  1  0  0  0  0
   10   14  1  0  0  0  0
   10   24  1  0  0  0  0
   10   25  1  0  0  0  0
   10   26  1  0  0  0  0
   11   15  1  0  0  0  0
   11   27  1  0  0  0  0
   11   28  1  0  0  0  0
   11   29  1  0  0  0  0
   12   16  1  0  0  0  0
   12   30  1  0  0  0  0
   12   31  1  0  0  0  0
   12   32  1  0  0  0  0
   21   33  1  0  0  0  0
   21   34  1  0  0  0  0
   21   35  1  0  0  0  0
   33   36  1  0  0  0  0
   33   37  1  0  0  0  0
   33   38  1  0  0  0  0
M  END
$$$$
