guest7

verachem
   18   18  0  0  0  0  0  0  0  0999 V2000
   -0.0440    1.9750   -0.0010 C   0  0  0  0  0  0  0  0  0  0  0  0
    1.2860    1.9010   -0.0040 C   0  0  0  0  0  0  0  0  0  0  0  0
    1.9470    0.5930   -0.0020 C   0  0  0  0  0  0  0  0  0  0  0  0
    1.2180   -0.5220    0.0020 C   0  0  0  0  0  0  0  0  0  0  0  0
   -0.2450   -0.4410    0.0050 C   0  0  0  0  0  0  0  0  0  0  0  0
   -0.8460    0.7480    0.0040 C   0  0  0  0  0  0  0  0  0  0  0  0
   -2.2740    0.8280    0.0070 N   0  3  0  0  0  0  0  0  0  0  0  0
    2.0680    3.0980   -0.0080 N   0  3  0  0  0  0  0  0  0  0  0  0
   -0.5360    2.9470   -0.0020 H   0  0  0  0  0  0  0  0  0  0  0  0
    3.0350    0.5330   -0.0040 H   0  0  0  0  0  0  0  0  0  0  0  0
    1.7100   -1.4950    0.0030 H   0  0  0  0  0  0  0  0  0  0  0  0
   -0.8420   -1.3530    0.0090 H   0  0  0  0  0  0  0  0  0  0  0  0
   -2.6870   -0.1600    0.0100 H   0  0  0  0  0  0  0  0  0  0  0  0
   -2.6050    1.3490   -0.8670 H   0  0  0  0  0  0  0  0  0  0  0  0
   -2.6010    1.3530    0.8800 H   0  0  0  0  0  0  0  0  0  0  0  0
    1.4200    3.9490   -0.0090 H   0  0  0  0  0  0  0  0  0  0  0  0
    2.6840    3.1190   -0.8830 H   0  0  0  0  0  0  0  0  0  0  0  0
    2.6880    3.1230    0.8640 H   0  0  0  0  0  0  0  0  0  0  0  0
    2    8  1  0  0  0  0
    6    7  1  0  0  0  0
    6    1  1  0  0  0  0
    5    6  2  0  0  0  0
    4    5  1  0  0  0  0
    3    4  2  0  0  0  0
    2    3  1  0  0  0  0
    1    2  2  0  0  0  0
    1    9  1  0  0  0  0
    3   10  1  0  0  0  0
    4   11  1  0  0  0  0
    5   12  1  0  0  0  0
    7   13  1  0  0  0  0
    7   14  1  0  0  0  0
    7   15  1  0  0  0  0
    8   16  1  0  0  0  0
    8   17  1  0  0  0  0
    8   18  1  0  0  0  0
M  END
$$$$
