guest13

verachem
   28   29  0  0  0  0  0  0  0  0999 V2000
   -1.1010   -0.2590    0.0000 C   0  0  0  0  0  0  0  0  0  0  0  0
   -2.3010    0.4740    0.0000 C   0  0  0  0  0  0  0  0  0  0  0  0
    0.0920    0.4830    0.0000 C   0  0  0  0  0  0  0  0  0  0  0  0
    0.0520    1.8850    0.0000 C   0  0  0  0  0  0  0  0  0  0  0  0
   -1.1120    2.5520    0.0000 N   0  3  0  0  0  0  0  0  0  0  0  0
   -1.0990    4.0000    0.0000 C   0  0  0  0  0  0  0  0  0  0  0  0
   -2.2730    1.8770    0.0000 C   0  0  0  0  0  0  0  0  0  0  0  0
   -1.0970   -1.7740    0.0000 C   0  0  0  0  0  0  0  0  0  0  0  0
   -2.2920   -2.5130    0.0000 C   0  0  0  0  0  0  0  0  0  0  0  0
   -2.2540   -3.9160    0.0000 C   0  0  0  0  0  0  0  0  0  0  0  0
   -1.0920   -4.5850    0.0000 N   0  3  0  0  0  0  0  0  0  0  0  0
   -1.1080   -6.0330    0.0000 C   0  0  0  0  0  0  0  0  0  0  0  0
    0.0700   -3.9120    0.0000 C   0  0  0  0  0  0  0  0  0  0  0  0
    0.1000   -2.5090    0.0000 C   0  0  0  0  0  0  0  0  0  0  0  0
   -3.2690    0.0010    0.0000 H   0  0  0  0  0  0  0  0  0  0  0  0
    1.0630    0.0160    0.0000 H   0  0  0  0  0  0  0  0  0  0  0  0
    0.9760    2.4410    0.0000 H   0  0  0  0  0  0  0  0  0  0  0  0
   -2.1150    4.3930    0.0000 H   0  0  0  0  0  0  0  0  0  0  0  0
   -0.5770    4.3550    0.8890 H   0  0  0  0  0  0  0  0  0  0  0  0
   -0.5770    4.3550   -0.8890 H   0  0  0  0  0  0  0  0  0  0  0  0
   -3.2070    2.4160    0.0000 H   0  0  0  0  0  0  0  0  0  0  0  0
   -3.2630   -2.0470    0.0000 H   0  0  0  0  0  0  0  0  0  0  0  0
   -3.1800   -4.4700    0.0000 H   0  0  0  0  0  0  0  0  0  0  0  0
   -0.0930   -6.4280    0.0000 H   0  0  0  0  0  0  0  0  0  0  0  0
   -1.6300   -6.3870    0.8890 H   0  0  0  0  0  0  0  0  0  0  0  0
   -1.6300   -6.3870   -0.8890 H   0  0  0  0  0  0  0  0  0  0  0  0
    1.0030   -4.4530    0.0000 H   0  0  0  0  0  0  0  0  0  0  0  0
    1.0690   -2.0370    0.0000 H   0  0  0  0  0  0  0  0  0  0  0  0
    1    2  2  0  0  0  0
    1    3  1  0  0  0  0
    1    8  1  0  0  0  0
    2    7  1  0  0  0  0
    2   15  1  0  0  0  0
    3    4  2  0  0  0  0
    3   16  1  0  0  0  0
    4    5  1  0  0  0  0
    4   17  1  0  0  0  0
    5    6  1  0  0  0  0
    5    7  2  0  0  0  0
    6   18  1  0  0  0  0
    6   19  1  0  0  0  0
    6   20  1  0  0  0  0
    7   21  1  0  0  0  0
    8   14  2  0  0  0  0
    8    9  1  0  0  0  0
    9   10  2  0  0  0  0
    9   22  1  0  0  0  0
   10   11  1  0  0  0  0
   10   23  1  0  0  0  0
   11   12  1  0  0  0  0
   11   13  2  0  0  0  0
   12   24  1  0  0  0  0
   12   25  1  0  0  0  0
   12   26  1  0  0  0  0
   13   14  1  0  0  0  0
   13   27  1  0  0  0  0
   14   28  1  0  0  0  0
M  END
$$$$
