guest14

verachem
   24   24  0  0  0  0  0  0  0  0999 V2000
   -0.2488    0.3872    0.4682 C   0  0  0  0  0  0  0  0  0  0  0  0
   -0.2326    1.8290    0.1680 N   0  3  0  0  0  0  0  0  0  0  0  0
   -1.3999   -0.2772   -0.2914 C   0  0  0  0  0  0  0  0  0  0  0  0
   -1.3991   -1.7935   -0.0920 C   0  0  0  0  0  0  0  0  0  0  0  0
   -0.0478   -2.4063   -0.4682 C   0  0  0  0  0  0  0  0  0  0  0  0
   -0.0640   -3.8482   -0.1680 N   0  3  0  0  0  0  0  0  0  0  0  0
    1.1033   -1.7420    0.2914 C   0  0  0  0  0  0  0  0  0  0  0  0
    1.1025   -0.2256    0.0920 C   0  0  0  0  0  0  0  0  0  0  0  0
   -0.4126    0.2966    1.5492 H   0  0  0  0  0  0  0  0  0  0  0  0
   -1.1061    2.2911    0.4340 H   0  0  0  0  0  0  0  0  0  0  0  0
    0.5020    2.3243    0.6804 H   0  0  0  0  0  0  0  0  0  0  0  0
   -0.0855    2.0450   -0.8212 H   0  0  0  0  0  0  0  0  0  0  0  0
   -2.3590    0.1330    0.0466 H   0  0  0  0  0  0  0  0  0  0  0  0
   -1.3214   -0.0549   -1.3636 H   0  0  0  0  0  0  0  0  0  0  0  0
   -1.6363   -2.0191    0.9559 H   0  0  0  0  0  0  0  0  0  0  0  0
   -2.1959   -2.2400   -0.6991 H   0  0  0  0  0  0  0  0  0  0  0  0
    0.1160   -2.3157   -1.5492 H   0  0  0  0  0  0  0  0  0  0  0  0
    0.8095   -4.3103   -0.4341 H   0  0  0  0  0  0  0  0  0  0  0  0
   -0.2111   -4.0642    0.8211 H   0  0  0  0  0  0  0  0  0  0  0  0
   -0.7986   -4.3434   -0.6805 H   0  0  0  0  0  0  0  0  0  0  0  0
    1.0248   -1.9642    1.3636 H   0  0  0  0  0  0  0  0  0  0  0  0
    2.0624   -2.1522   -0.0466 H   0  0  0  0  0  0  0  0  0  0  0  0
    1.3397   -0.0001   -0.9559 H   0  0  0  0  0  0  0  0  0  0  0  0
    1.8992    0.2208    0.6991 H   0  0  0  0  0  0  0  0  0  0  0  0
    1    2  1  0  0  0  0
    1    3  1  0  0  0  0
    1    8  1  0  0  0  0
    1    9  1  0  0  0  0
    2   10  1  0  0  0  0
    2   11  1  0  0  0  0
    2   12  1  0  0  0  0
    3    4  1  0  0  0  0
    3   13  1  0  0  0  0
    3   14  1  0  0  0  0
    4    5  1  0  0  0  0
    4   15  1  0  0  0  0
    4   16  1  0  0  0  0
    5    6  1  0  0  0  0
    5    7  1  0  0  0  0
    5   17  1  0  0  0  0
    6   18  1  0  0  0  0
    6   19  1  0  0  0  0
    6   20  1  0  0  0  0
    7    8  1  0  0  0  0
    7   21  1  0  0  0  0
    7   22  1  0  0  0  0
    8   23  1  0  0  0  0
    8   24  1  0  0  0  0
M  END
$$$$
