guest9

verachem
   18   18  0  0  0  0  0  0  0  0999 V2000
   -7.3610   -2.9800    0.0000 C   0  0  0  0  0  0  0  0  0  0  0  0
   -6.1910   -2.3220    0.0000 N   0  3  0  0  0  0  0  0  0  0  0  0
   -7.4030   -4.3830    0.0000 C   0  0  0  0  0  0  0  0  0  0  0  0
   -6.2800   -6.6410    0.0000 C   0  0  0  0  0  0  0  0  0  0  0  0
   -4.9270   -7.3020    0.0000 N   0  3  0  0  0  0  0  0  0  0  0  0
   -6.2110   -5.1190    0.0000 C   0  0  0  0  0  0  0  0  0  0  0  0
   -5.0020   -4.4020    0.0000 C   0  0  0  0  0  0  0  0  0  0  0  0
   -5.0300   -2.9970    0.0000 C   0  0  0  0  0  0  0  0  0  0  0  0
   -8.2820   -2.4160    0.0000 H   0  0  0  0  0  0  0  0  0  0  0  0
   -6.1830   -1.2520    0.0000 H   0  0  0  0  0  0  0  0  0  0  0  0
   -8.3560   -4.8920    0.0000 H   0  0  0  0  0  0  0  0  0  0  0  0
   -6.8360   -6.9600   -0.8820 H   0  0  0  0  0  0  0  0  0  0  0  0
   -6.8360   -6.9600    0.8820 H   0  0  0  0  0  0  0  0  0  0  0  0
   -5.0490   -8.3650    0.0000 H   0  0  0  0  0  0  0  0  0  0  0  0
   -4.3850   -7.0060    0.8740 H   0  0  0  0  0  0  0  0  0  0  0  0
   -4.3850   -7.0060   -0.8740 H   0  0  0  0  0  0  0  0  0  0  0  0
   -4.0410   -4.8930    0.0000 H   0  0  0  0  0  0  0  0  0  0  0  0
   -4.1020   -2.4450    0.0000 H   0  0  0  0  0  0  0  0  0  0  0  0
    1    2  2  0  0  0  0
    1    3  1  0  0  0  0
    1    9  1  0  0  0  0
    2    8  1  0  0  0  0
    2   10  1  0  0  0  0
    3    6  2  0  0  0  0
    3   11  1  0  0  0  0
    4    5  1  0  0  0  0
    4    6  1  0  0  0  0
    4   12  1  0  0  0  0
    4   13  1  0  0  0  0
    5   14  1  0  0  0  0
    5   15  1  0  0  0  0
    5   16  1  0  0  0  0
    6    7  1  0  0  0  0
    7    8  2  0  0  0  0
    7   17  1  0  0  0  0
    8   18  1  0  0  0  0
M  END
$$$$
