guest28

verachem
   70   71  0  0  0  0  0  0  0  0999 V2000
    1.3170   -0.2900    0.6570 C   0  0  0  0  0  0  0  0  0  0  0  0
    1.6140    1.0340    1.3900 C   0  0  0  0  0  0  0  0  0  0  0  0
    0.1610   -0.1080   -0.3440 C   0  0  0  0  0  0  0  0  0  0  0  0
    0.6410    2.1430    0.9450 C   0  0  0  0  0  0  0  0  0  0  0  0
    0.5520    1.0160   -1.3240 C   0  0  0  0  0  0  0  0  0  0  0  0
    0.8050    2.3400   -0.5740 C   0  0  0  0  0  0  0  0  0  0  0  0
   -1.0840    0.3490    0.4410 C   0  0  0  0  0  0  0  0  0  0  0  0
   -0.7980    1.6560    1.2110 C   0  0  0  0  0  0  0  0  0  0  0  0
   -0.1160   -1.4100   -1.1140 C   0  0  0  0  0  0  0  0  0  0  0  0
    0.9360    3.4440    1.7100 C   0  0  0  0  0  0  0  0  0  0  0  0
   -0.4680   -2.5220   -0.2370 N   0  3  0  0  0  0  0  0  0  0  0  0
    0.0670    4.5470    1.3100 N   0  3  0  0  0  0  0  0  0  0  0  0
    2.2130   -0.6380    0.1410 H   0  0  0  0  0  0  0  0  0  0  0  0
    1.0700   -1.0610    1.3870 H   0  0  0  0  0  0  0  0  0  0  0  0
    1.5450    0.8830    2.4680 H   0  0  0  0  0  0  0  0  0  0  0  0
    2.6430    1.3420    1.1970 H   0  0  0  0  0  0  0  0  0  0  0  0
    1.4450    0.7300   -1.8820 H   0  0  0  0  0  0  0  0  0  0  0  0
   -0.2330    1.1560   -2.0680 H   0  0  0  0  0  0  0  0  0  0  0  0
    1.8060    2.7100   -0.8020 H   0  0  0  0  0  0  0  0  0  0  0  0
    0.1120    3.0990   -0.9360 H   0  0  0  0  0  0  0  0  0  0  0  0
   -1.9220    0.4970   -0.2410 H   0  0  0  0  0  0  0  0  0  0  0  0
   -1.3990   -0.4230    1.1430 H   0  0  0  0  0  0  0  0  0  0  0  0
   -0.9470    1.4980    2.2800 H   0  0  0  0  0  0  0  0  0  0  0  0
   -1.5210    2.4150    0.9150 H   0  0  0  0  0  0  0  0  0  0  0  0
   -0.9350   -1.2740   -1.8220 H   0  0  0  0  0  0  0  0  0  0  0  0
    0.7590   -1.7110   -1.6920 H   0  0  0  0  0  0  0  0  0  0  0  0
    0.8120    3.2960    2.7840 H   0  0  0  0  0  0  0  0  0  0  0  0
    1.9670    3.7620    1.5500 H   0  0  0  0  0  0  0  0  0  0  0  0
   -1.3220   -2.3050    0.3070 H   0  0  0  0  0  0  0  0  0  0  0  0
   -0.7322   -3.7786   -1.0503 C   0  0  0  0  0  0  0  0  0  0  0  0
    0.3010   -2.7240    0.4260 H   0  0  0  0  0  0  0  0  0  0  0  0
    0.3924    5.7929    2.1176 C   0  0  0  0  0  0  0  0  0  0  0  0
    0.1990    4.7680    0.3050 H   0  0  0  0  0  0  0  0  0  0  0  0
   -0.9280    4.3050    1.4690 H   0  0  0  0  0  0  0  0  0  0  0  0
   -0.2627    6.6077    1.8094 H   0  0  0  0  0  0  0  0  0  0  0  0
    1.8591    6.1945    1.8745 C   0  0  0  0  0  0  0  0  0  0  0  0
    0.2430    5.5885    3.1779 H   0  0  0  0  0  0  0  0  0  0  0  0
    2.1888    7.4568    2.6928 C   0  0  0  0  0  0  0  0  0  0  0  0
    2.0092    6.3998    0.8146 H   0  0  0  0  0  0  0  0  0  0  0  0
    2.5152    5.3806    2.1830 H   0  0  0  0  0  0  0  0  0  0  0  0
    3.6364    7.8533    2.4528 N   0  3  0  0  0  0  0  0  0  0  0  0
    2.0396    7.2524    3.7530 H   0  0  0  0  0  0  0  0  0  0  0  0
    1.5336    8.2717    2.3845 H   0  0  0  0  0  0  0  0  0  0  0  0
    3.9619    9.0992    3.2604 C   0  0  0  0  0  0  0  0  0  0  0  0
    3.7838    8.0548    1.4123 H   0  0  0  0  0  0  0  0  0  0  0  0
    4.5513    6.7182    2.8830 C   0  0  0  0  0  0  0  0  0  0  0  0
    4.9999    9.3834    3.0884 H   0  0  0  0  0  0  0  0  0  0  0  0
    3.8127    8.8948    4.3207 H   0  0  0  0  0  0  0  0  0  0  0  0
    3.3067    9.9140    2.9522 H   0  0  0  0  0  0  0  0  0  0  0  0
    5.5894    7.0025    2.7110 H   0  0  0  0  0  0  0  0  0  0  0  0
    4.3192    5.8244    2.3040 H   0  0  0  0  0  0  0  0  0  0  0  0
    4.4024    6.5127    3.9431 H   0  0  0  0  0  0  0  0  0  0  0  0
   -0.9933   -4.5976   -0.3801 H   0  0  0  0  0  0  0  0  0  0  0  0
    0.5323   -4.1511   -1.8464 C   0  0  0  0  0  0  0  0  0  0  0  0
   -1.5560   -3.5985   -1.7410 H   0  0  0  0  0  0  0  0  0  0  0  0
    0.2646   -5.4242   -2.6704 C   0  0  0  0  0  0  0  0  0  0  0  0
    1.3565   -4.3321   -1.1564 H   0  0  0  0  0  0  0  0  0  0  0  0
    0.7939   -3.3329   -2.5175 H   0  0  0  0  0  0  0  0  0  0  0  0
    1.1596   -5.6878   -3.2339 H   0  0  0  0  0  0  0  0  0  0  0  0
   -0.5591   -5.2440   -3.3613 H   0  0  0  0  0  0  0  0  0  0  0  0
   -0.0994   -6.5663   -1.7358 N   0  3  0  0  0  0  0  0  0  0  0  0
   -0.3636   -7.8230   -2.5491 C   0  0  0  0  0  0  0  0  0  0  0  0
   -0.9784   -6.3088   -1.1826 H   0  0  0  0  0  0  0  0  0  0  0  0
    1.0489   -6.8192   -0.7725 C   0  0  0  0  0  0  0  0  0  0  0  0
   -0.6247   -8.6419   -1.8788 H   0  0  0  0  0  0  0  0  0  0  0  0
    0.5314   -8.0866   -3.1126 H   0  0  0  0  0  0  0  0  0  0  0  0
   -1.1874   -7.6428   -3.2398 H   0  0  0  0  0  0  0  0  0  0  0  0
    0.7879   -7.6382   -0.1023 H   0  0  0  0  0  0  0  0  0  0  0  0
    1.2387   -5.9188   -0.1883 H   0  0  0  0  0  0  0  0  0  0  0  0
    1.9446   -7.0823   -1.3352 H   0  0  0  0  0  0  0  0  0  0  0  0
    1    2  1  0  0  0  0
    1    3  1  0  0  0  0
    1   13  1  0  0  0  0
    1   14  1  0  0  0  0
    2    4  1  0  0  0  0
    2   15  1  0  0  0  0
    2   16  1  0  0  0  0
    3    5  1  0  0  0  0
    3    7  1  0  0  0  0
    3    9  1  0  0  0  0
    4    6  1  0  0  0  0
    4    8  1  0  0  0  0
    4   10  1  0  0  0  0
    5    6  1  0  0  0  0
    5   17  1  0  0  0  0
    5   18  1  0  0  0  0
    6   19  1  0  0  0  0
    6   20  1  0  0  0  0
    7    8  1  0  0  0  0
    7   21  1  0  0  0  0
    7   22  1  0  0  0  0
    8   23  1  0  0  0  0
    8   24  1  0  0  0  0
    9   11  1  0  0  0  0
    9   25  1  0  0  0  0
    9   26  1  0  0  0  0
   10   12  1  0  0  0  0
   10   27  1  0  0  0  0
   10   28  1  0  0  0  0
   11   29  1  0  0  0  0
   11   30  1  0  0  0  0
   11   31  1  0  0  0  0
   12   32  1  0  0  0  0
   12   33  1  0  0  0  0
   12   34  1  0  0  0  0
   30   53  1  0  0  0  0
   30   54  1  0  0  0  0
   30   55  1  0  0  0  0
   32   35  1  0  0  0  0
   32   36  1  0  0  0  0
   32   37  1  0  0  0  0
   36   38  1  0  0  0  0
   36   39  1  0  0  0  0
   36   40  1  0  0  0  0
   38   41  1  0  0  0  0
   38   42  1  0  0  0  0
   38   43  1  0  0  0  0
   41   44  1  0  0  0  0
   41   45  1  0  0  0  0
   41   46  1  0  0  0  0
   44   47  1  0  0  0  0
   44   48  1  0  0  0  0
   44   49  1  0  0  0  0
   46   50  1  0  0  0  0
   46   51  1  0  0  0  0
   46   52  1  0  0  0  0
   54   56  1  0  0  0  0
   54   57  1  0  0  0  0
   54   58  1  0  0  0  0
   56   59  1  0  0  0  0
   56   60  1  0  0  0  0
   56   61  1  0  0  0  0
   61   62  1  0  0  0  0
   61   63  1  0  0  0  0
   61   64  1  0  0  0  0
   62   65  1  0  0  0  0
   62   66  1  0  0  0  0
   62   67  1  0  0  0  0
   64   68  1  0  0  0  0
   64   69  1  0  0  0  0
   64   70  1  0  0  0  0
M  END
$$$$
