guest11

verachem
   18   18  0  0  0  0  0  0  0  0999 V2000
   -3.6740   -1.1450    0.0000 C   0  0  0  0  0  0  0  0  0  0  0  0
   -3.6740    0.2840    0.0000 N   0  3  0  0  0  0  0  0  0  0  0  0
   -4.9120   -1.8590    0.0000 C   0  0  0  0  0  0  0  0  0  0  0  0
   -4.9120   -3.2880    0.0000 C   0  0  0  0  0  0  0  0  0  0  0  0
   -3.6740   -4.0020    0.0000 C   0  0  0  0  0  0  0  0  0  0  0  0
   -3.6740   -5.4310    0.0000 N   0  3  0  0  0  0  0  0  0  0  0  0
   -2.4370   -3.2880    0.0000 C   0  0  0  0  0  0  0  0  0  0  0  0
   -2.4370   -1.8590    0.0000 C   0  0  0  0  0  0  0  0  0  0  0  0
   -4.6830    0.6410    0.0000 H   0  0  0  0  0  0  0  0  0  0  0  0
   -3.1700    0.6410   -0.8740 H   0  0  0  0  0  0  0  0  0  0  0  0
   -5.8470   -1.3190    0.0000 H   0  0  0  0  0  0  0  0  0  0  0  0
   -5.8470   -3.8280    0.0000 H   0  0  0  0  0  0  0  0  0  0  0  0
   -2.7220   -5.7680    0.0000 H   0  0  0  0  0  0  0  0  0  0  0  0
   -4.1500   -5.7680    0.8250 H   0  0  0  0  0  0  0  0  0  0  0  0
   -4.1500   -5.7680   -0.8250 H   0  0  0  0  0  0  0  0  0  0  0  0
   -1.5020   -3.8280    0.0000 H   0  0  0  0  0  0  0  0  0  0  0  0
   -1.5020   -1.3190    0.0000 H   0  0  0  0  0  0  0  0  0  0  0  0
   -3.1700    0.6410    0.8740 H   0  0  0  0  0  0  0  0  0  0  0  0
    1    2  1  0  0  0  0
    1    8  2  0  0  0  0
    1    3  1  0  0  0  0
    2    9  1  0  0  0  0
    2   10  1  0  0  0  0
    3    4  2  0  0  0  0
    3   11  1  0  0  0  0
    4    5  1  0  0  0  0
    4   12  1  0  0  0  0
    5    6  1  0  0  0  0
    5    7  2  0  0  0  0
    6   13  1  0  0  0  0
    6   14  1  0  0  0  0
    6   15  1  0  0  0  0
    7    8  1  0  0  0  0
    7   16  1  0  0  0  0
    8   17  1  0  0  0  0
    2   18  1  0  0  0  0
M  END
$$$$
