guest22

verachem
   38   40  0  0  0  0  0  0  0  0999 V2000
   -0.5683   -0.6771   -1.2681 C   0  0  0  0  0  0  0  0  0  0  0  0
    0.6052    1.4161   -0.3073 C   0  0  0  0  0  0  0  0  0  0  0  0
    1.0662   -0.9678    0.5795 C   0  0  1  0  0  0  0  0  0  0  0  0
   -1.1469    0.0661    1.0303 C   0  0  2  0  0  0  0  0  0  0  0  0
    0.0185    0.7101   -1.5676 C   0  0  0  0  0  0  0  0  0  0  0  0
    0.5247   -1.5925   -0.7094 C   0  0  0  0  0  0  0  0  0  0  0  0
   -1.7089   -0.5491   -0.2545 C   0  0  0  0  0  0  0  0  0  0  0  0
    1.6517    0.4195    0.2782 C   0  0  0  0  0  0  0  0  0  0  0  0
   -0.5593    1.4524    0.7289 C   0  0  0  0  0  0  0  0  0  0  0  0
   -0.0593   -0.8425    1.6103 C   0  0  0  0  0  0  0  0  0  0  0  0
   -0.9575   -1.1083   -2.1905 H   0  0  0  0  0  0  0  0  0  0  0  0
    1.1923    2.8039   -0.6082 N   0  3  0  0  0  0  0  0  0  0  0  0
   -1.9517    0.1686    1.7583 H   0  0  0  0  0  0  0  0  0  0  0  0
    0.7850    0.5586   -2.3251 H   0  0  0  0  0  0  0  0  0  0  0  0
   -0.7896    1.2939   -2.0039 H   0  0  0  0  0  0  0  0  0  0  0  0
    0.1110   -2.5791   -0.4985 H   0  0  0  0  0  0  0  0  0  0  0  0
    1.3293   -1.6980   -1.4377 H   0  0  0  0  0  0  0  0  0  0  0  0
   -2.4953    0.0888   -0.6587 H   0  0  0  0  0  0  0  0  0  0  0  0
   -2.1293   -1.5326   -0.0423 H   0  0  0  0  0  0  0  0  0  0  0  0
    2.4723    0.2581   -0.4182 H   0  0  0  0  0  0  0  0  0  0  0  0
    2.0611    0.7869    1.2172 H   0  0  0  0  0  0  0  0  0  0  0  0
   -0.2232    1.8538    1.6830 H   0  0  0  0  0  0  0  0  0  0  0  0
   -1.3863    2.0611    0.3686 H   0  0  0  0  0  0  0  0  0  0  0  0
   -0.4748   -1.8268    1.8280 H   0  0  0  0  0  0  0  0  0  0  0  0
    0.3293   -0.4136    2.5344 H   0  0  0  0  0  0  0  0  0  0  0  0
    1.7555    3.4899    0.5920 C   0  0  0  0  0  0  0  0  0  0  0  0
    0.1992    3.7659   -1.1709 C   0  0  0  0  0  0  0  0  0  0  0  0
    2.3094    2.7806   -1.5981 C   0  0  0  0  0  0  0  0  0  0  0  0
    1.8506   -1.6077    0.9839 H   0  0  0  0  0  0  0  0  0  0  0  0
    2.1592    4.4674    0.3261 H   0  0  0  0  0  0  0  0  0  0  0  0
    0.9989    3.6700    1.3533 H   0  0  0  0  0  0  0  0  0  0  0  0
    2.5780    2.9312    1.0347 H   0  0  0  0  0  0  0  0  0  0  0  0
    0.6637    4.7331   -1.3656 H   0  0  0  0  0  0  0  0  0  0  0  0
   -0.2064    3.4263   -2.1221 H   0  0  0  0  0  0  0  0  0  0  0  0
   -0.6223    3.9559   -0.4828 H   0  0  0  0  0  0  0  0  0  0  0  0
    2.6895    3.7869   -1.7774 H   0  0  0  0  0  0  0  0  0  0  0  0
    3.1559    2.1938   -1.2465 H   0  0  0  0  0  0  0  0  0  0  0  0
    1.9909    2.3988   -2.5662 H   0  0  0  0  0  0  0  0  0  0  0  0
    1    5  1  0  0  0  0
    1    6  1  0  0  0  0
    1    7  1  0  0  0  0
    1   11  1  0  0  0  0
    2    5  1  0  0  0  0
    2    8  1  0  0  0  0
    2    9  1  0  0  0  0
    2   12  1  0  0  0  0
    3    6  1  0  0  0  0
    3    8  1  0  0  0  0
    3   10  1  0  0  0  0
    3   29  1  0  0  0  0
    4    7  1  0  0  0  0
    4    9  1  0  0  0  0
    4   10  1  0  0  0  0
    4   13  1  0  0  0  0
    5   14  1  0  0  0  0
    5   15  1  0  0  0  0
    6   16  1  0  0  0  0
    6   17  1  0  0  0  0
    7   18  1  0  0  0  0
    7   19  1  0  0  0  0
    8   20  1  0  0  0  0
    8   21  1  0  0  0  0
    9   22  1  0  0  0  0
    9   23  1  0  0  0  0
   10   24  1  0  0  0  0
   10   25  1  0  0  0  0
   12   26  1  0  0  0  0
   12   27  1  0  0  0  0
   12   28  1  0  0  0  0
   26   30  1  0  0  0  0
   26   31  1  0  0  0  0
   26   32  1  0  0  0  0
   27   33  1  0  0  0  0
   27   34  1  0  0  0  0
   27   35  1  0  0  0  0
   28   36  1  0  0  0  0
   28   37  1  0  0  0  0
   28   38  1  0  0  0  0
M  END
$$$$
