guest27

verachem
   32   34  0  0  0  0  0  0  0  0999 V2000
   -0.5654   -0.6652   -1.2811 C   0  0  0  0  0  0  0  0  0  0  0  0
    0.5814    1.3597   -0.2951 C   0  0  0  0  0  0  0  0  0  0  0  0
    1.0811   -0.9580    0.5801 C   0  0  1  0  0  0  0  0  0  0  0  0
   -1.1482    0.0834    1.0342 C   0  0  2  0  0  0  0  0  0  0  0  0
    0.0217    0.7221   -1.5805 C   0  0  0  0  0  0  0  0  0  0  0  0
    0.5323   -1.5753   -0.7135 C   0  0  0  0  0  0  0  0  0  0  0  0
   -1.7019   -0.5316   -0.2583 C   0  0  0  0  0  0  0  0  0  0  0  0
    1.6666    0.4295    0.2788 C   0  0  0  0  0  0  0  0  0  0  0  0
   -0.5605    1.4699    0.7326 C   0  0  0  0  0  0  0  0  0  0  0  0
   -0.0517   -0.8251    1.6069 C   0  0  0  0  0  0  0  0  0  0  0  0
   -0.9560   -1.0998   -2.2013 H   0  0  0  0  0  0  0  0  0  0  0  0
    1.1437    2.6889   -0.5833 C   0  0  0  0  0  0  0  0  0  0  0  0
   -1.9536    0.1816    1.7623 H   0  0  0  0  0  0  0  0  0  0  0  0
    0.8191    0.6249   -2.3178 H   0  0  0  0  0  0  0  0  0  0  0  0
   -0.7576    1.3614   -1.9965 H   0  0  0  0  0  0  0  0  0  0  0  0
    0.1202   -2.5629   -0.5043 H   0  0  0  0  0  0  0  0  0  0  0  0
    1.3370   -1.6799   -1.4418 H   0  0  0  0  0  0  0  0  0  0  0  0
   -2.4879    0.1069   -0.6626 H   0  0  0  0  0  0  0  0  0  0  0  0
   -2.1245   -1.5142   -0.0470 H   0  0  0  0  0  0  0  0  0  0  0  0
    2.4801    0.3294   -0.4403 H   0  0  0  0  0  0  0  0  0  0  0  0
    2.0680    0.8588    1.1972 H   0  0  0  0  0  0  0  0  0  0  0  0
   -0.1809    1.9094    1.6555 H   0  0  0  0  0  0  0  0  0  0  0  0
   -1.3454    2.1166    0.3392 H   0  0  0  0  0  0  0  0  0  0  0  0
   -0.4666   -1.8091    1.8270 H   0  0  0  0  0  0  0  0  0  0  0  0
    0.3371   -0.3956    2.5306 H   0  0  0  0  0  0  0  0  0  0  0  0
    1.5349    3.1255    0.3356 H   0  0  0  0  0  0  0  0  0  0  0  0
    1.8627   -1.6012    0.9847 H   0  0  0  0  0  0  0  0  0  0  0  0
    0.3638    3.3339   -0.9881 H   0  0  0  0  0  0  0  0  0  0  0  0
    2.2673    2.5553   -1.5982 N   0  3  0  0  0  0  0  0  0  0  0  0
    2.6761    3.5216   -1.8077 H   0  0  0  0  0  0  0  0  0  0  0  0
    1.8842    2.1273   -2.5010 H   0  0  0  0  0  0  0  0  0  0  0  0
    3.0337    1.9228   -1.2013 H   0  0  0  0  0  0  0  0  0  0  0  0
    1    5  1  0  0  0  0
    1    6  1  0  0  0  0
    1    7  1  0  0  0  0
    1   11  1  0  0  0  0
    2    5  1  0  0  0  0
    2    8  1  0  0  0  0
    2    9  1  0  0  0  0
    2   12  1  0  0  0  0
    3    6  1  0  0  0  0
    3    8  1  0  0  0  0
    3   10  1  0  0  0  0
    3   27  1  0  0  0  0
    4    7  1  0  0  0  0
    4    9  1  0  0  0  0
    4   10  1  0  0  0  0
    4   13  1  0  0  0  0
    5   14  1  0  0  0  0
    5   15  1  0  0  0  0
    6   16  1  0  0  0  0
    6   17  1  0  0  0  0
    7   18  1  0  0  0  0
    7   19  1  0  0  0  0
    8   20  1  0  0  0  0
    8   21  1  0  0  0  0
    9   22  1  0  0  0  0
    9   23  1  0  0  0  0
   10   24  1  0  0  0  0
   10   25  1  0  0  0  0
   12   26  1  0  0  0  0
   12   28  1  0  0  0  0
   12   29  1  0  0  0  0
   29   30  1  0  0  0  0
   29   31  1  0  0  0  0
   29   32  1  0  0  0  0
M  END
$$$$
