guest12

verachem
   18   18  0  0  0  0  0  0  0  0999 V2000
   -0.3930   -1.3060    0.0000 C   0  0  0  0  0  0  0  0  0  0  0  0
   -0.3930    0.1230    0.0000 N   0  3  0  0  0  0  0  0  0  0  0  0
   -1.6300   -2.0200    0.0000 C   0  0  0  0  0  0  0  0  0  0  0  0
   -1.6300   -3.4480    0.0000 C   0  0  0  0  0  0  0  0  0  0  0  0
   -0.3930   -4.1630    0.0000 C   0  0  0  0  0  0  0  0  0  0  0  0
   -0.3930   -5.5910    0.0000 C   0  0  0  0  0  0  0  0  0  0  0  0
    0.8440   -3.4480    0.0000 C   0  0  0  0  0  0  0  0  0  0  0  0
    0.8440   -2.0200    0.0000 C   0  0  0  0  0  0  0  0  0  0  0  0
   -1.3450    0.4600    0.0000 H   0  0  0  0  0  0  0  0  0  0  0  0
    0.0830    0.4600    0.8250 H   0  0  0  0  0  0  0  0  0  0  0  0
    0.0830    0.4600   -0.8250 H   0  0  0  0  0  0  0  0  0  0  0  0
   -2.5650   -1.4800    0.0000 H   0  0  0  0  0  0  0  0  0  0  0  0
   -2.5650   -3.9890    0.0000 H   0  0  0  0  0  0  0  0  0  0  0  0
    0.6350   -5.9550    0.0000 H   0  0  0  0  0  0  0  0  0  0  0  0
   -0.9070   -5.9550    0.8900 H   0  0  0  0  0  0  0  0  0  0  0  0
   -0.9070   -5.9550   -0.8900 H   0  0  0  0  0  0  0  0  0  0  0  0
    1.7800   -3.9890    0.0000 H   0  0  0  0  0  0  0  0  0  0  0  0
    1.7800   -1.4800    0.0000 H   0  0  0  0  0  0  0  0  0  0  0  0
    1    2  1  0  0  0  0
    1    8  2  0  0  0  0
    1    3  1  0  0  0  0
    2    9  1  0  0  0  0
    2   10  1  0  0  0  0
    2   11  1  0  0  0  0
    3    4  2  0  0  0  0
    3   12  1  0  0  0  0
    4    5  1  0  0  0  0
    4   13  1  0  0  0  0
    5    6  1  0  0  0  0
    5    7  2  0  0  0  0
    6   14  1  0  0  0  0
    6   15  1  0  0  0  0
    6   16  1  0  0  0  0
    7    8  1  0  0  0  0
    7   17  1  0  0  0  0
    8   18  1  0  0  0  0
M  END
$$$$
