guest2

verachem
   35   37  0  0  0  0  0  0  0  0999 V2000
   -0.5535   -0.6164   -1.3038 C   0  0  1  0  0  0  0  0  0  0  0  0
    0.5954    1.3931   -0.3013 C   0  0  2  0  0  0  0  0  0  0  0  0
    1.1015   -0.9170    0.5761 C   0  0  1  0  0  0  0  0  0  0  0  0
   -1.1435    0.1403    1.0290 C   0  0  2  0  0  0  0  0  0  0  0  0
    0.0417    0.7723   -1.5960 C   0  0  0  0  0  0  0  0  0  0  0  0
    0.5451   -1.5247   -0.7236 C   0  0  0  0  0  0  0  0  0  0  0  0
   -1.6873   -0.4734   -0.2732 C   0  0  0  0  0  0  0  0  0  0  0  0
    1.6873    0.4734    0.2732 C   0  0  0  0  0  0  0  0  0  0  0  0
   -0.5450    1.5247    0.7236 C   0  0  0  0  0  0  0  0  0  0  0  0
   -0.0418   -0.7723    1.5960 C   0  0  0  0  0  0  0  0  0  0  0  0
   -1.1052   -1.2309   -2.6037 C   0  0  0  0  0  0  0  0  0  0  0  0
    1.1812    2.7640   -0.5978 N   0  3  0  0  0  0  0  0  0  0  0  0
    2.1996   -1.8313    1.1505 C   0  0  0  0  0  0  0  0  0  0  0  0
   -1.9545    0.2398    1.7589 H   0  0  0  0  0  0  0  0  0  0  0  0
    0.8413    0.6875   -2.3422 H   0  0  0  0  0  0  0  0  0  0  0  0
   -0.7270    1.4263   -2.0258 H   0  0  0  0  0  0  0  0  0  0  0  0
    0.1384   -2.5241   -0.5254 H   0  0  0  0  0  0  0  0  0  0  0  0
    1.3532   -1.6488   -1.4549 H   0  0  0  0  0  0  0  0  0  0  0  0
   -2.4857    0.1592   -0.6803 H   0  0  0  0  0  0  0  0  0  0  0  0
   -2.1321   -1.4548   -0.0673 H   0  0  0  0  0  0  0  0  0  0  0  0
    2.5149    0.3834   -0.4411 H   0  0  0  0  0  0  0  0  0  0  0  0
    2.1028    0.9120    1.1887 H   0  0  0  0  0  0  0  0  0  0  0  0
   -0.1677    1.9815    1.6469 H   0  0  0  0  0  0  0  0  0  0  0  0
   -1.3238    2.1915    0.3335 H   0  0  0  0  0  0  0  0  0  0  0  0
   -0.4584   -1.7588    1.8337 H   0  0  0  0  0  0  0  0  0  0  0  0
    0.3441   -0.3550    2.5341 H   0  0  0  0  0  0  0  0  0  0  0  0
   -1.5255   -2.2140   -2.3916 H   0  0  0  0  0  0  0  0  0  0  0  0
   -0.2986   -1.3302   -3.3301 H   0  0  0  0  0  0  0  0  0  0  0  0
   -1.8825   -0.5841   -3.0106 H   0  0  0  0  0  0  0  0  0  0  0  0
    1.5647    3.1914    0.3050 H   0  0  0  0  0  0  0  0  0  0  0  0
    0.4184    3.3996   -0.9968 H   0  0  0  0  0  0  0  0  0  0  0  0
    1.9733    2.6674   -1.3106 H   0  0  0  0  0  0  0  0  0  0  0  0
    2.5904   -1.3968    2.0705 H   0  0  0  0  0  0  0  0  0  0  0  0
    3.0068   -1.9305    0.4247 H   0  0  0  0  0  0  0  0  0  0  0  0
    1.7800   -2.8145    1.3633 H   0  0  0  0  0  0  0  0  0  0  0  0
    1    5  1  0  0  0  0
    1    6  1  0  0  0  0
    1    7  1  0  0  0  0
    1   11  1  0  0  0  0
    2    5  1  0  0  0  0
    2    8  1  0  0  0  0
    2    9  1  0  0  0  0
    2   12  1  0  0  0  0
    3    6  1  0  0  0  0
    3    8  1  0  0  0  0
    3   10  1  0  0  0  0
    3   13  1  0  0  0  0
    4    7  1  0  0  0  0
    4    9  1  0  0  0  0
    4   10  1  0  0  0  0
    4   14  1  0  0  0  0
    5   15  1  0  0  0  0
    5   16  1  0  0  0  0
    6   17  1  0  0  0  0
    6   18  1  0  0  0  0
    7   19  1  0  0  0  0
    7   20  1  0  0  0  0
    8   21  1  0  0  0  0
    8   22  1  0  0  0  0
    9   23  1  0  0  0  0
    9   24  1  0  0  0  0
   10   25  1  0  0  0  0
   10   26  1  0  0  0  0
   11   27  1  0  0  0  0
   11   28  1  0  0  0  0
   11   29  1  0  0  0  0
   12   30  1  0  0  0  0
   12   31  1  0  0  0  0
   12   32  1  0  0  0  0
   13   33  1  0  0  0  0
   13   34  1  0  0  0  0
   13   35  1  0  0  0  0
M  END
$$$$
