@<TRIPOS>MOLECULE
*****
   31    32     0     0     0
SMALL
USER_CHARGES

@<TRIPOS>ATOM
      1 C1          7.6218   38.9882   29.9392 C.3       1 CB8-G5        -0.0918
      2 C2          8.5485   40.1100   30.4367 C.3       1 CB8-G5        -0.0948
      3 C3          8.9975   37.2756   31.0871 C.3       1 CB8-G5        -0.0963
      4 C4          8.5989   37.8166   29.6912 C.3       1 CB8-G5        -0.0647
      5 C5          9.9707   38.3528   31.5941 C.3       1 CB8-G5         0.1035
      6 C6          9.9433   39.4233   30.4621 C.3       1 CB8-G5        -0.0650
      7 C7          9.8866   38.5220   29.1843 C.3       1 CB8-G5        -0.0359
      8 C8         11.0865   40.4190   30.5391 C.3       1 CB8-G5        -0.0967
      9 C9         11.0848   37.5715   28.9814 C.3       1 CB8-G5        -0.0946
     10 C10         9.7096   39.2671   27.8451 C.3       1 CB8-G5        -0.0946
     11 N1          9.5506   38.8685   32.9136 N.4       1 CB8-G5        -0.8344
     12 H1          6.8507   38.7417   30.6767 H         1 CB8-G5         0.0662
     13 H2          7.1101   39.2862   29.0180 H         1 CB8-G5         0.0662
     14 H3          8.5273   40.9604   29.7457 H         1 CB8-G5         0.0552
     15 H4          8.2316   40.5027   31.4067 H         1 CB8-G5         0.0552
     16 H5          8.1286   37.1229   31.7366 H         1 CB8-G5         0.0757
     17 H6          9.5087   36.3110   30.9959 H         1 CB8-G5         0.0757
     18 H7          8.1902   37.0466   29.0327 H         1 CB8-G5         0.1060
     19 H8         10.9747   37.9439   31.7486 H         1 CB8-G5         0.1112
     20 H9         12.0444   39.8950   30.5547 H         1 CB8-G5         0.0572
     21 H10        11.0032   41.0213   31.4461 H         1 CB8-G5         0.0572
     22 H11        11.0669   41.0853   29.6742 H         1 CB8-G5         0.0572
     23 H12        11.9346   38.1441   28.6290 H         1 CB8-G5         0.0523
     24 H13        10.8185   36.8184   28.2493 H         1 CB8-G5         0.0523
     25 H14        11.3250   37.0987   29.9264 H         1 CB8-G5         0.0523
     26 H15        10.6513   39.7265   27.5688 H         1 CB8-G5         0.0523
     27 H16         8.9481   40.0290   27.9623 H         1 CB8-G5         0.0523
     28 H17         9.4077   38.5581   27.0832 H         1 CB8-G5         0.0523
     29 H18         8.8028   38.2914   33.3185 H         1 CB8-G5         0.4563
     30 H19         9.1965   39.8308   32.8417 H         1 CB8-G5         0.4563
     31 H20        10.3343   38.8739   33.5785 H         1 CB8-G5         0.4563
@<TRIPOS>BOND
     1    1    2 1
     2    1    4 1
     3    2    6 1
     4    3    4 1
     5    3    5 1
     6    4    7 1
     7    5    6 1
     8    5   11 1
     9    6    7 1
    10    6    8 1
    11    7    9 1
    12    7   10 1
    13    1   12 1
    14    1   13 1
    15    2   14 1
    16    2   15 1
    17    3   16 1
    18    3   17 1
    19    4   18 1
    20    5   19 1
    21    8   20 1
    22    8   21 1
    23    8   22 1
    24    9   23 1
    25    9   24 1
    26    9   25 1
    27   10   26 1
    28   10   27 1
    29   10   28 1
    30   11   29 1
    31   11   30 1
    32   11   31 1
