
  -OEChem-08221716173D

 31 32  0     1  0  0  0  0  0999 V2000
    7.6218   38.9882   29.9392 C   0  0  0  0  0  0  0  0  0  0  0  0
    8.5485   40.1100   30.4367 C   0  0  0  0  0  0  0  0  0  0  0  0
    8.9975   37.2756   31.0871 C   0  0  0  0  0  0  0  0  0  0  0  0
    8.5989   37.8166   29.6912 C   0  0  2  0  0  0  0  0  0  0  0  0
    9.9707   38.3528   31.5941 C   0  0  1  0  0  0  0  0  0  0  0  0
    9.9433   39.4233   30.4621 C   0  0  1  0  0  0  0  0  0  0  0  0
    9.8866   38.5220   29.1843 C   0  0  0  0  0  0  0  0  0  0  0  0
   11.0865   40.4190   30.5391 C   0  0  0  0  0  0  0  0  0  0  0  0
   11.0848   37.5715   28.9814 C   0  0  0  0  0  0  0  0  0  0  0  0
    9.7096   39.2671   27.8451 C   0  0  0  0  0  0  0  0  0  0  0  0
    9.5506   38.8685   32.9136 N   0  3  0  0  0  0  0  0  0  0  0  0
    6.8507   38.7417   30.6767 H   0  0  0  0  0  0  0  0  0  0  0  0
    7.1101   39.2862   29.0180 H   0  0  0  0  0  0  0  0  0  0  0  0
    8.5273   40.9604   29.7457 H   0  0  0  0  0  0  0  0  0  0  0  0
    8.2316   40.5027   31.4067 H   0  0  0  0  0  0  0  0  0  0  0  0
    8.1286   37.1229   31.7366 H   0  0  0  0  0  0  0  0  0  0  0  0
    9.5087   36.3110   30.9959 H   0  0  0  0  0  0  0  0  0  0  0  0
    8.1902   37.0466   29.0327 H   0  0  0  0  0  0  0  0  0  0  0  0
   10.9747   37.9439   31.7486 H   0  0  0  0  0  0  0  0  0  0  0  0
   12.0444   39.8950   30.5547 H   0  0  0  0  0  0  0  0  0  0  0  0
   11.0032   41.0213   31.4461 H   0  0  0  0  0  0  0  0  0  0  0  0
   11.0669   41.0853   29.6742 H   0  0  0  0  0  0  0  0  0  0  0  0
   11.9346   38.1441   28.6290 H   0  0  0  0  0  0  0  0  0  0  0  0
   10.8185   36.8184   28.2493 H   0  0  0  0  0  0  0  0  0  0  0  0
   11.3250   37.0987   29.9264 H   0  0  0  0  0  0  0  0  0  0  0  0
   10.6513   39.7265   27.5688 H   0  0  0  0  0  0  0  0  0  0  0  0
    8.9481   40.0290   27.9623 H   0  0  0  0  0  0  0  0  0  0  0  0
    9.4077   38.5581   27.0832 H   0  0  0  0  0  0  0  0  0  0  0  0
    8.8028   38.2914   33.3185 H   0  0  0  0  0  0  0  0  0  0  0  0
    9.1965   39.8308   32.8417 H   0  0  0  0  0  0  0  0  0  0  0  0
   10.3343   38.8739   33.5785 H   0  0  0  0  0  0  0  0  0  0  0  0
  1  2  1  0  0  0  0
  1  4  1  0  0  0  0
  2  6  1  0  0  0  0
  3  4  1  0  0  0  0
  3  5  1  0  0  0  0
  4  7  1  0  0  0  0
  5  6  1  0  0  0  0
  5 11  1  0  0  0  0
  6  7  1  0  0  0  0
  6  8  1  0  0  0  0
  7  9  1  0  0  0  0
  7 10  1  0  0  0  0
  1 12  1  0  0  0  0
  1 13  1  0  0  0  0
  2 14  1  0  0  0  0
  2 15  1  0  0  0  0
  3 16  1  0  0  0  0
  3 17  1  0  0  0  0
  4 18  1  0  0  0  0
  5 19  1  0  0  0  0
  8 20  1  0  0  0  0
  8 21  1  0  0  0  0
  8 22  1  0  0  0  0
  9 23  1  0  0  0  0
  9 24  1  0  0  0  0
  9 25  1  0  0  0  0
 10 26  1  0  0  0  0
 10 27  1  0  0  0  0
 10 28  1  0  0  0  0
 11 29  1  0  0  0  0
 11 30  1  0  0  0  0
 11 31  1  0  0  0  0
M  CHG  1  11   1
M  END
> <Chemgauss4>
-9.379567

$$$$
