
  -OEChem-08221716173D

 24 24  0     0  0  0  0  0  0999 V2000
   10.6058   37.5794   28.9609 C   0  0  0  0  0  0  0  0  0  0  0  0
   10.5119   36.2934   29.7799 C   0  0  0  0  0  0  0  0  0  0  0  0
    9.3924   37.8800   28.0825 C   0  0  0  0  0  0  0  0  0  0  0  0
    9.4694   36.2722   30.9093 C   0  0  0  0  0  0  0  0  0  0  0  0
    8.0313   37.4741   28.6432 C   0  0  0  0  0  0  0  0  0  0  0  0
    8.7260   37.5840   31.1542 C   0  0  0  0  0  0  0  0  0  0  0  0
    7.7119   37.9432   30.0628 C   0  0  0  0  0  0  0  0  0  0  0  0
    7.5321   39.4242   30.0628 N   0  3  0  0  0  0  0  0  0  0  0  0
   10.7406   38.4132   29.6596 H   0  0  0  0  0  0  0  0  0  0  0  0
   11.5105   37.5492   28.3432 H   0  0  0  0  0  0  0  0  0  0  0  0
   10.2793   35.4694   29.0871 H   0  0  0  0  0  0  0  0  0  0  0  0
   11.5036   36.0556   30.1963 H   0  0  0  0  0  0  0  0  0  0  0  0
    9.3936   38.9505   27.7735 H   0  0  0  0  0  0  0  0  0  0  0  0
    9.5381   37.3232   27.1298 H   0  0  0  0  0  0  0  0  0  0  0  0
    8.7561   35.4337   30.7616 H   0  0  0  0  0  0  0  0  0  0  0  0
   10.0134   36.0162   31.8421 H   0  0  0  0  0  0  0  0  0  0  0  0
    7.2479   37.8400   27.9582 H   0  0  0  0  0  0  0  0  0  0  0  0
    7.9394   36.3757   28.6052 H   0  0  0  0  0  0  0  0  0  0  0  0
    8.1787   37.4999   32.1002 H   0  0  0  0  0  0  0  0  0  0  0  0
    9.4493   38.3938   31.2991 H   0  0  0  0  0  0  0  0  0  0  0  0
    6.7242   37.5401   30.3434 H   0  0  0  0  0  0  0  0  0  0  0  0
    6.7306   39.6833   30.6397 H   0  0  0  0  0  0  0  0  0  0  0  0
    7.3727   39.7607   29.1119 H   0  0  0  0  0  0  0  0  0  0  0  0
    8.3651   39.8816   30.4361 H   0  0  0  0  0  0  0  0  0  0  0  0
  1  2  1  0  0  0  0
  1  3  1  0  0  0  0
  2  4  1  0  0  0  0
  3  5  1  0  0  0  0
  4  6  1  0  0  0  0
  5  7  1  0  0  0  0
  6  7  1  0  0  0  0
  7  8  1  0  0  0  0
  1  9  1  0  0  0  0
  1 10  1  0  0  0  0
  2 11  1  0  0  0  0
  2 12  1  0  0  0  0
  3 13  1  0  0  0  0
  3 14  1  0  0  0  0
  4 15  1  0  0  0  0
  4 16  1  0  0  0  0
  5 17  1  0  0  0  0
  5 18  1  0  0  0  0
  6 19  1  0  0  0  0
  6 20  1  0  0  0  0
  7 21  1  0  0  0  0
  8 22  1  0  0  0  0
  8 23  1  0  0  0  0
  8 24  1  0  0  0  0
M  CHG  1   8   1
M  END
> <Chemgauss4>
-7.199047

$$$$
