@<TRIPOS>MOLECULE
*****
   39    39     0     0     0
SMALL
USER_CHARGES

@<TRIPOS>ATOM
      1 C1          7.5951   38.8097   27.5577 C.3       1 CB8-G8        -0.0795
      2 C2          8.2625   40.0791   27.0218 C.3       1 CB8-G8        -0.0808
      3 C3          7.5006   38.7668   29.0851 C.3       1 CB8-G8        -0.0808
      4 C4          9.6838   40.4013   27.5173 C.3       1 CB8-G8        -0.0821
      5 C5          7.2118   37.3540   29.6018 C.3       1 CB8-G8        -0.0821
      6 C6         10.7728   39.3649   27.2027 C.3       1 CB8-G8        -0.0800
      7 C7          7.5410   37.1562   31.0900 C.3       1 CB8-G8        -0.0800
      8 C8         10.9069   38.1787   28.1679 C.3       1 CB8-G8        -0.0853
      9 C9          8.9839   37.4870   31.5080 C.3       1 CB8-G8        -0.0853
     10 C10        11.3464   38.5621   29.5876 C.3       1 CB8-G8        -0.1115
     11 C11        10.0594   36.6436   30.8040 C.3       1 CB8-G8        -0.1115
     12 C12        11.3997   37.3573   30.5458 C.3       1 CB8-G8         0.1325
     13 N1         11.9580   37.8261   31.8490 N.4       1 CB8-G8        -0.8490
     14 H1          6.5785   38.7560   27.1459 H         1 CB8-G8         0.0445
     15 H2          8.1179   37.9306   27.1723 H         1 CB8-G8         0.0445
     16 H3          8.2781   40.0306   25.9161 H         1 CB8-G8         0.0462
     17 H4          7.6149   40.9437   27.2627 H         1 CB8-G8         0.0462
     18 H5          8.3986   39.1495   29.5423 H         1 CB8-G8         0.0462
     19 H6          6.6826   39.4145   29.3947 H         1 CB8-G8         0.0462
     20 H7          9.9932   41.3617   27.0569 H         1 CB8-G8         0.0494
     21 H8          9.6418   40.6350   28.5958 H         1 CB8-G8         0.0494
     22 H9          6.1694   37.1177   29.4313 H         1 CB8-G8         0.0494
     23 H10         7.8121   36.6579   29.0273 H         1 CB8-G8         0.0494
     24 H11        10.6745   38.9819   26.1691 H         1 CB8-G8         0.0501
     25 H12        11.7470   39.8965   27.1812 H         1 CB8-G8         0.0501
     26 H13         6.8991   37.8484   31.6473 H         1 CB8-G8         0.0501
     27 H14         7.2554   36.1618   31.4327 H         1 CB8-G8         0.0501
     28 H15         9.9466   37.6621   28.2156 H         1 CB8-G8         0.0537
     29 H16        11.6295   37.4692   27.7600 H         1 CB8-G8         0.0537
     30 H17         9.1795   38.5315   31.2990 H         1 CB8-G8         0.0537
     31 H18         9.0693   37.3433   32.5775 H         1 CB8-G8         0.0537
     32 H19        12.3236   39.0432   29.5397 H         1 CB8-G8         0.0772
     33 H20        10.6561   39.3071   29.9783 H         1 CB8-G8         0.0772
     34 H21        10.2257   35.7383   31.4037 H         1 CB8-G8         0.0772
     35 H22         9.6479   36.2780   29.8501 H         1 CB8-G8         0.0772
     36 H23        12.1391   36.6290   30.1902 H         1 CB8-G8         0.1101
     37 H24        11.6578   38.7844   32.0465 H         1 CB8-G8         0.4566
     38 H25        12.9813   37.8078   31.8302 H         1 CB8-G8         0.4566
     39 H26        11.6401   37.2258   32.6147 H         1 CB8-G8         0.4566
@<TRIPOS>BOND
     1    1    2 1
     2    1    3 1
     3    2    4 1
     4    3    5 1
     5    4    6 1
     6    5    7 1
     7    6    8 1
     8    7    9 1
     9    8   10 1
    10    9   11 1
    11   10   12 1
    12   11   12 1
    13   12   13 1
    14    1   14 1
    15    1   15 1
    16    2   16 1
    17    2   17 1
    18    3   18 1
    19    3   19 1
    20    4   20 1
    21    4   21 1
    22    5   22 1
    23    5   23 1
    24    6   24 1
    25    6   25 1
    26    7   26 1
    27    7   27 1
    28    8   28 1
    29    8   29 1
    30    9   30 1
    31    9   31 1
    32   10   32 1
    33   10   33 1
    34   11   34 1
    35   11   35 1
    36   12   36 1
    37   13   37 1
    38   13   38 1
    39   13   39 1
