@<TRIPOS>MOLECULE
*****
   27    27     0     0     0
SMALL
USER_CHARGES

@<TRIPOS>ATOM
      1 C1          8.8500   38.0825   30.7142 C.3       1 CB8-G7        -0.0847
      2 C2          7.8403   38.7781   29.8045 C.3       1 CB8-G7        -0.0843
      3 C3          9.0583   36.6062   30.3919 C.3       1 CB8-G7        -0.0843
      4 C4          7.9395   38.4983   28.3046 C.3       1 CB8-G7        -0.0789
      5 C5         10.4378   36.2648   29.8329 C.3       1 CB8-G7        -0.0789
      6 C6          9.3041   38.7627   27.6700 C.3       1 CB8-G7        -0.1036
      7 C7         11.0726   37.2236   28.8223 C.3       1 CB8-G7        -0.1036
      8 C8         10.3039   37.6022   27.5555 C.3       1 CB8-G7         0.1372
      9 N1          9.6793   36.4065   26.9370 N.4       1 CB8-G7        -0.8504
     10 H1          9.8045   38.6136   30.7412 H         1 CB8-G7         0.0557
     11 H2          8.4537   38.1264   31.7353 H         1 CB8-G7         0.0557
     12 H3          6.8065   38.6072   30.1571 H         1 CB8-G7         0.0565
     13 H4          7.9738   39.8715   29.9255 H         1 CB8-G7         0.0565
     14 H5          8.9287   36.0440   31.3165 H         1 CB8-G7         0.0565
     15 H6          8.2874   36.2668   29.7025 H         1 CB8-G7         0.0565
     16 H7          7.6301   37.4725   28.1157 H         1 CB8-G7         0.0585
     17 H8          7.2168   39.1382   27.7969 H         1 CB8-G7         0.0585
     18 H9         11.1447   36.0412   30.6671 H         1 CB8-G7         0.0585
     19 H10        10.3311   35.2795   29.3218 H         1 CB8-G7         0.0585
     20 H11         9.1171   39.1420   26.6517 H         1 CB8-G7         0.0704
     21 H12         9.7887   39.6069   28.1811 H         1 CB8-G7         0.0704
     22 H13        11.2776   38.1821   29.3649 H         1 CB8-G7         0.0704
     23 H14        12.1106   36.8817   28.5741 H         1 CB8-G7         0.0704
     24 H15        11.0703   37.9374   26.8017 H         1 CB8-G7         0.1073
     25 H16         8.8606   36.1130   27.4740 H         1 CB8-G7         0.4569
     26 H17        10.3443   35.6305   26.9100 H         1 CB8-G7         0.4569
     27 H18         9.3828   36.6128   25.9807 H         1 CB8-G7         0.4569
@<TRIPOS>BOND
     1    1    2 1
     2    1    3 1
     3    2    4 1
     4    3    5 1
     5    4    6 1
     6    5    7 1
     7    6    8 1
     8    7    8 1
     9    8    9 1
    10    1   10 1
    11    1   11 1
    12    2   12 1
    13    2   13 1
    14    3   14 1
    15    3   15 1
    16    4   16 1
    17    4   17 1
    18    5   18 1
    19    5   19 1
    20    6   20 1
    21    6   21 1
    22    7   22 1
    23    7   23 1
    24    8   24 1
    25    9   25 1
    26    9   26 1
    27    9   27 1
