
  -OEChem-08221716173D

 27 27  0     0  0  0  0  0  0999 V2000
    8.8500   38.0825   30.7142 C   0  0  0  0  0  0  0  0  0  0  0  0
    7.8403   38.7781   29.8045 C   0  0  0  0  0  0  0  0  0  0  0  0
    9.0583   36.6062   30.3919 C   0  0  0  0  0  0  0  0  0  0  0  0
    7.9395   38.4983   28.3046 C   0  0  0  0  0  0  0  0  0  0  0  0
   10.4378   36.2648   29.8329 C   0  0  0  0  0  0  0  0  0  0  0  0
    9.3041   38.7627   27.6700 C   0  0  0  0  0  0  0  0  0  0  0  0
   11.0726   37.2236   28.8223 C   0  0  0  0  0  0  0  0  0  0  0  0
   10.3039   37.6022   27.5555 C   0  0  0  0  0  0  0  0  0  0  0  0
    9.6793   36.4065   26.9370 N   0  3  0  0  0  0  0  0  0  0  0  0
    9.8045   38.6136   30.7412 H   0  0  0  0  0  0  0  0  0  0  0  0
    8.4537   38.1264   31.7353 H   0  0  0  0  0  0  0  0  0  0  0  0
    6.8065   38.6072   30.1571 H   0  0  0  0  0  0  0  0  0  0  0  0
    7.9738   39.8715   29.9255 H   0  0  0  0  0  0  0  0  0  0  0  0
    8.9287   36.0440   31.3165 H   0  0  0  0  0  0  0  0  0  0  0  0
    8.2874   36.2668   29.7025 H   0  0  0  0  0  0  0  0  0  0  0  0
    7.6301   37.4725   28.1157 H   0  0  0  0  0  0  0  0  0  0  0  0
    7.2168   39.1382   27.7969 H   0  0  0  0  0  0  0  0  0  0  0  0
   11.1447   36.0412   30.6671 H   0  0  0  0  0  0  0  0  0  0  0  0
   10.3311   35.2795   29.3218 H   0  0  0  0  0  0  0  0  0  0  0  0
    9.1171   39.1420   26.6517 H   0  0  0  0  0  0  0  0  0  0  0  0
    9.7887   39.6069   28.1811 H   0  0  0  0  0  0  0  0  0  0  0  0
   11.2776   38.1821   29.3649 H   0  0  0  0  0  0  0  0  0  0  0  0
   12.1106   36.8817   28.5741 H   0  0  0  0  0  0  0  0  0  0  0  0
   11.0703   37.9374   26.8017 H   0  0  0  0  0  0  0  0  0  0  0  0
    8.8606   36.1130   27.4740 H   0  0  0  0  0  0  0  0  0  0  0  0
   10.3443   35.6305   26.9100 H   0  0  0  0  0  0  0  0  0  0  0  0
    9.3828   36.6128   25.9807 H   0  0  0  0  0  0  0  0  0  0  0  0
  1  2  1  0  0  0  0
  1  3  1  0  0  0  0
  2  4  1  0  0  0  0
  3  5  1  0  0  0  0
  4  6  1  0  0  0  0
  5  7  1  0  0  0  0
  6  8  1  0  0  0  0
  7  8  1  0  0  0  0
  8  9  1  0  0  0  0
  1 10  1  0  0  0  0
  1 11  1  0  0  0  0
  2 12  1  0  0  0  0
  2 13  1  0  0  0  0
  3 14  1  0  0  0  0
  3 15  1  0  0  0  0
  4 16  1  0  0  0  0
  4 17  1  0  0  0  0
  5 18  1  0  0  0  0
  5 19  1  0  0  0  0
  6 20  1  0  0  0  0
  6 21  1  0  0  0  0
  7 22  1  0  0  0  0
  7 23  1  0  0  0  0
  8 24  1  0  0  0  0
  9 25  1  0  0  0  0
  9 26  1  0  0  0  0
  9 27  1  0  0  0  0
M  CHG  1   9   1
M  END
> <Chemgauss4>
-8.388302

$$$$
