@<TRIPOS>MOLECULE
*****
   26    28     0     0     0
SMALL
USER_CHARGES

@<TRIPOS>ATOM
      1 C1          9.7901   37.8639   28.9083 C.3       1 CB8-G9        -0.0830
      2 C2          7.7302   38.8831   29.9557 C.3       1 CB8-G9        -0.0860
      3 C3          8.2878   36.5265   30.4359 C.3       1 CB8-G9        -0.0860
      4 C4          9.8046   39.5529   30.7890 C.3       1 CB8-G9        -0.0924
      5 C5         10.3661   37.1795   31.2726 C.3       1 CB8-G9        -0.0924
      6 C6          9.1498   39.1745   29.4566 C.3       1 CB8-G9        -0.0609
      7 C7          9.7319   36.7136   29.9580 C.3       1 CB8-G9        -0.0609
      8 C8          8.0159   37.8897   31.0950 C.3       1 CB8-G9        -0.0704
      9 C9          9.4196   38.3306   31.6292 C.3       1 CB8-G9         0.0826
     10 N1          9.4274   38.6243   33.0612 N.4       1 CB8-G9        -0.8223
     11 H1          9.2610   37.5535   27.9994 H         1 CB8-G9         0.0720
     12 H2         10.8345   38.0552   28.6349 H         1 CB8-G9         0.0720
     13 H3          7.2586   39.7926   30.3473 H         1 CB8-G9         0.0738
     14 H4          7.0809   38.4751   29.1744 H         1 CB8-G9         0.0738
     15 H5          7.5973   36.2918   29.6194 H         1 CB8-G9         0.0738
     16 H6          8.2219   35.7206   31.1769 H         1 CB8-G9         0.0738
     17 H7         10.8864   39.6970   30.6987 H         1 CB8-G9         0.0720
     18 H8          9.3725   40.4787   31.1892 H         1 CB8-G9         0.0720
     19 H9         10.3417   36.3805   32.0242 H         1 CB8-G9         0.0720
     20 H10        11.4075   37.4941   31.1474 H         1 CB8-G9         0.0720
     21 H11         9.1832   39.9828   28.7215 H         1 CB8-G9         0.1002
     22 H12        10.1750   35.7904   29.5757 H         1 CB8-G9         0.1002
     23 H13         7.2111   37.8498   31.8335 H         1 CB8-G9         0.0744
     24 H14        10.2301   38.1867   33.5433 H         1 CB8-G9         0.4565
     25 H15         8.5738   38.2809   33.5324 H         1 CB8-G9         0.4565
     26 H16         9.4839   39.6391   33.2495 H         1 CB8-G9         0.4565
@<TRIPOS>BOND
     1    1    6 1
     2    1    7 1
     3    2    6 1
     4    2    8 1
     5    3    7 1
     6    3    8 1
     7    4    6 1
     8    4    9 1
     9    5    7 1
    10    5    9 1
    11    8    9 1
    12    9   10 1
    13    1   11 1
    14    1   12 1
    15    2   13 1
    16    2   14 1
    17    3   15 1
    18    3   16 1
    19    4   17 1
    20    4   18 1
    21    5   19 1
    22    5   20 1
    23    6   21 1
    24    7   22 1
    25    8   23 1
    26   10   24 1
    27   10   25 1
    28   10   26 1
