
  -OEChem-08221715453D

 56 57  0     1  0  0  0  0  0999 V2000
    6.4156   36.9733   25.0592 C   0  0  0  0  0  0  0  0  0  0  0  0
    6.1601   36.6163   26.3831 C   0  0  0  0  0  0  0  0  0  0  0  0
    7.3830   37.9359   24.7706 C   0  0  0  0  0  0  0  0  0  0  0  0
    6.8718   37.2220   27.4186 C   0  0  0  0  0  0  0  0  0  0  0  0
    8.0947   38.5416   25.8061 C   0  0  0  0  0  0  0  0  0  0  0  0
    9.5845   36.0122   31.3652 C   0  0  0  0  0  0  0  0  0  0  0  0
   10.4274   36.1448   30.2618 C   0  0  0  0  0  0  0  0  0  0  0  0
    8.1269   37.7109   30.4560 C   0  0  0  0  0  0  0  0  0  0  0  0
    7.8392   38.1846   27.1301 C   0  0  0  0  0  0  0  0  0  0  0  0
    8.4342   36.7952   31.4623 C   0  0  0  0  0  0  0  0  0  0  0  0
    8.9698   37.8436   29.3526 C   0  0  0  0  0  0  0  0  0  0  0  0
   10.1201   37.0605   29.2555 C   0  0  0  0  0  0  0  0  0  0  0  0
    7.5327   36.6519   32.6416 C   0  0  0  0  0  0  0  0  0  0  0  0
    8.7928   42.3203   27.6141 C   0  0  0  0  0  0  0  0  0  0  0  0
   11.3163   42.3157   27.5377 C   0  0  0  0  0  0  0  0  0  0  0  0
   11.5744   39.9071   30.8619 C   0  0  0  0  0  0  0  0  0  0  0  0
   10.5730   42.1244   31.5363 C   0  0  0  0  0  0  0  0  0  0  0  0
    7.9378   40.1336   28.7985 C   0  0  0  0  0  0  0  0  0  0  0  0
    8.7672   40.8199   29.8809 C   0  0  0  0  0  0  0  0  0  0  0  0
    8.6179   38.8477   28.2622 C   0  0  2  0  0  0  0  0  0  0  0  0
   10.0802   42.3522   28.4219 C   0  0  0  0  0  0  0  0  0  0  0  0
   11.1554   41.2947   30.4034 C   0  0  0  0  0  0  0  0  0  0  0  0
   10.1054   41.1469   29.3297 N   0  3  0  0  0  0  0  0  0  0  0  0
   10.9554   37.1782   28.1854 O   0  0  0  0  0  0  0  0  0  0  0  0
    5.8623   36.5006   24.2529 H   0  0  0  0  0  0  0  0  0  0  0  0
    5.4076   35.8660   26.6079 H   0  0  0  0  0  0  0  0  0  0  0  0
    7.5830   38.2133   23.7399 H   0  0  0  0  0  0  0  0  0  0  0  0
    6.6658   36.9377   28.4472 H   0  0  0  0  0  0  0  0  0  0  0  0
    8.8465   39.2907   25.5719 H   0  0  0  0  0  0  0  0  0  0  0  0
    9.8311   35.2958   32.1444 H   0  0  0  0  0  0  0  0  0  0  0  0
   11.3208   35.5301   30.1920 H   0  0  0  0  0  0  0  0  0  0  0  0
    7.2296   38.3207   30.5324 H   0  0  0  0  0  0  0  0  0  0  0  0
    7.8366   37.3393   33.4406 H   0  0  0  0  0  0  0  0  0  0  0  0
    6.4900   36.8680   32.3748 H   0  0  0  0  0  0  0  0  0  0  0  0
    7.5535   35.6279   33.0370 H   0  0  0  0  0  0  0  0  0  0  0  0
    8.7701   41.4421   26.9604 H   0  0  0  0  0  0  0  0  0  0  0  0
    7.9110   42.2800   28.2634 H   0  0  0  0  0  0  0  0  0  0  0  0
    8.7045   43.2102   26.9814 H   0  0  0  0  0  0  0  0  0  0  0  0
   11.2961   41.4374   26.8839 H   0  0  0  0  0  0  0  0  0  0  0  0
   12.2354   42.2720   28.1322 H   0  0  0  0  0  0  0  0  0  0  0  0
   11.3690   43.2050   26.9004 H   0  0  0  0  0  0  0  0  0  0  0  0
   10.7315   39.3840   31.3255 H   0  0  0  0  0  0  0  0  0  0  0  0
   11.9303   39.2968   30.0243 H   0  0  0  0  0  0  0  0  0  0  0  0
   12.3797   39.9651   31.6022 H   0  0  0  0  0  0  0  0  0  0  0  0
    9.7291   41.6034   32.0006 H   0  0  0  0  0  0  0  0  0  0  0  0
   10.2143   43.0964   31.1803 H   0  0  0  0  0  0  0  0  0  0  0  0
   11.3221   42.3061   32.3145 H   0  0  0  0  0  0  0  0  0  0  0  0
    6.9356   39.9235   29.1912 H   0  0  0  0  0  0  0  0  0  0  0  0
    7.7983   40.8356   27.9648 H   0  0  0  0  0  0  0  0  0  0  0  0
    8.9324   40.1689   30.7443 H   0  0  0  0  0  0  0  0  0  0  0  0
    8.3269   41.7650   30.2098 H   0  0  0  0  0  0  0  0  0  0  0  0
    9.5621   39.1991   27.8187 H   0  0  0  0  0  0  0  0  0  0  0  0
   10.1016   43.2306   29.0750 H   0  0  0  0  0  0  0  0  0  0  0  0
   11.9989   41.8165   29.9401 H   0  0  0  0  0  0  0  0  0  0  0  0
   10.4080   40.3519   28.7412 H   0  0  0  0  0  0  0  0  0  0  0  0
   11.7027   36.5663   28.2751 H   0  0  0  0  0  0  0  0  0  0  0  0
  1  2  2  0  0  0  0
  1  3  1  0  0  0  0
  2  4  1  0  0  0  0
  3  5  2  0  0  0  0
  4  9  2  0  0  0  0
  5  9  1  0  0  0  0
  6  7  1  0  0  0  0
  6 10  2  0  0  0  0
  7 12  2  0  0  0  0
  8 10  1  0  0  0  0
  8 11  2  0  0  0  0
  9 20  1  0  0  0  0
 10 13  1  0  0  0  0
 11 12  1  0  0  0  0
 11 20  1  0  0  0  0
 12 24  1  0  0  0  0
 14 21  1  0  0  0  0
 15 21  1  0  0  0  0
 16 22  1  0  0  0  0
 17 22  1  0  0  0  0
 18 19  1  0  0  0  0
 18 20  1  0  0  0  0
 19 23  1  0  0  0  0
 21 23  1  0  0  0  0
 22 23  1  0  0  0  0
  1 25  1  0  0  0  0
  2 26  1  0  0  0  0
  3 27  1  0  0  0  0
  4 28  1  0  0  0  0
  5 29  1  0  0  0  0
  6 30  1  0  0  0  0
  7 31  1  0  0  0  0
  8 32  1  0  0  0  0
 13 33  1  0  0  0  0
 13 34  1  0  0  0  0
 13 35  1  0  0  0  0
 14 36  1  0  0  0  0
 14 37  1  0  0  0  0
 14 38  1  0  0  0  0
 15 39  1  0  0  0  0
 15 40  1  0  0  0  0
 15 41  1  0  0  0  0
 16 42  1  0  0  0  0
 16 43  1  0  0  0  0
 16 44  1  0  0  0  0
 17 45  1  0  0  0  0
 17 46  1  0  0  0  0
 17 47  1  0  0  0  0
 18 48  1  0  0  0  0
 18 49  1  0  0  0  0
 19 50  1  0  0  0  0
 19 51  1  0  0  0  0
 20 52  1  0  0  0  0
 21 53  1  0  0  0  0
 22 54  1  0  0  0  0
 23 55  1  0  0  0  0
 24 56  1  0  0  0  0
M  CHG  1  23   1
M  END
> <Chemgauss4>
-9.390826

$$$$
