@<TRIPOS>MOLECULE
*****
   46    48     0     0     0
SMALL
USER_CHARGES

@<TRIPOS>ATOM
      1 C1          8.7480   37.0356   25.8210 C.1       1 CB8-G0         0.2094
      2 C2         10.4532   38.2425   27.0991 C.ar      1 CB8-G0        -0.0884
      3 C3         10.8253   39.0727   28.1583 C.ar      1 CB8-G0        -0.1075
      4 C4         12.1720   39.5724   31.0067 C.ar      1 CB8-G0        -0.0885
      5 C5         10.3173   39.6045   32.5546 C.ar      1 CB8-G0        -0.0885
      6 C6         12.9930   39.0412   32.0014 C.ar      1 CB8-G0        -0.1662
      7 C7         11.1382   39.0732   33.5493 C.ar      1 CB8-G0        -0.1662
      8 C8          8.1239   38.3540   27.7820 C.ar      1 CB8-G0        -0.0683
      9 C9          9.1098   37.8846   26.9124 C.ar      1 CB8-G0         0.0077
     10 C10        10.8341   39.8541   31.2833 C.ar      1 CB8-G0        -0.1239
     11 C11         9.8374   39.5280   29.0191 C.ar      1 CB8-G0        -0.1098
     12 C12         8.5089   39.1730   28.8295 C.ar      1 CB8-G0        -0.1240
     13 C13        12.4761   38.7916   33.2727 C.ar      1 CB8-G0         0.1500
     14 C14         7.6660   39.8096   29.8668 C.3       1 CB8-G0         0.1715
     15 C15         9.9549   40.4219   30.2192 C.3       1 CB8-G0         0.2630
     16 C16        12.6267   45.4879   29.7976 C.3       1 CB8-G0         0.0794
     17 C17        13.0423   43.4843   31.2166 C.3       1 CB8-G0         0.0794
     18 C18        10.3734   41.8433   29.8618 C.3       1 CB8-G0        -0.0828
     19 C19        10.2546   42.7774   31.0637 C.3       1 CB8-G0        -0.1148
     20 C20        10.7082   44.1845   30.7044 C.3       1 CB8-G0         0.1124
     21 N1          8.4544   36.3461   24.9349 N.1       1 CB8-G0        -0.3167
     22 N2         12.1099   44.1352   30.2238 N.4       1 CB8-G0        -0.6798
     23 O1          8.5971   40.4613   30.7625 O.3       1 CB8-G0        -0.4263
     24 F1         13.2637   38.2789   34.2272 F         1 CB8-G0        -0.1238
     25 H1         11.2215   37.8791   26.4201 H         1 CB8-G0         0.1594
     26 H2         11.8646   39.3504   28.2985 H         1 CB8-G0         0.1478
     27 H3         12.5839   39.7642   30.0194 H         1 CB8-G0         0.1402
     28 H4          9.2760   39.8206   32.7792 H         1 CB8-G0         0.1402
     29 H5         14.0342   38.8212   31.7860 H         1 CB8-G0         0.1608
     30 H6         10.7363   38.8792   34.5393 H         1 CB8-G0         0.1608
     31 H7          7.0789   38.0905   27.6478 H         1 CB8-G0         0.1630
     32 H8          7.0045   40.5701   29.4423 H         1 CB8-G0         0.0709
     33 H9          7.0903   39.0781   30.4401 H         1 CB8-G0         0.0709
     34 H10        12.6133   46.1411   30.6720 H         1 CB8-G0         0.1069
     35 H11        13.6432   45.3543   29.4228 H         1 CB8-G0         0.1069
     36 H12        11.9664   45.8663   29.0149 H         1 CB8-G0         0.1069
     37 H13        13.0387   44.0900   32.1247 H         1 CB8-G0         0.1069
     38 H14        12.6696   42.4776   31.4147 H         1 CB8-G0         0.1069
     39 H15        14.0377   43.4534   30.7695 H         1 CB8-G0         0.1069
     40 H16        11.4064   41.8293   29.4987 H         1 CB8-G0         0.0637
     41 H17         9.7432   42.2044   29.0423 H         1 CB8-G0         0.0637
     42 H18         9.2144   42.7994   31.4121 H         1 CB8-G0         0.0814
     43 H19        10.8617   42.3910   31.8919 H         1 CB8-G0         0.0814
     44 H20        10.1101   44.6141   29.8954 H         1 CB8-G0         0.1028
     45 H21        10.6927   44.8537   31.5697 H         1 CB8-G0         0.1028
     46 H22        12.1345   43.5407   29.3773 H         1 CB8-G0         0.4515
@<TRIPOS>BOND
     1    1    9 1
     2    1   21 3
     3    2    3 ar
     4    2    9 ar
     5    3   11 ar
     6    4    6 ar
     7    4   10 ar
     8    5    7 ar
     9    5   10 ar
    10    6   13 ar
    11    7   13 ar
    12    8    9 ar
    13    8   12 ar
    14   10   15 1
    15   11   12 ar
    16   11   15 1
    17   12   14 1
    18   13   24 1
    19   14   23 1
    20   15   18 1
    21   15   23 1
    22   16   22 1
    23   17   22 1
    24   18   19 1
    25   19   20 1
    26   20   22 1
    27    2   25 1
    28    3   26 1
    29    4   27 1
    30    5   28 1
    31    6   29 1
    32    7   30 1
    33    8   31 1
    34   14   32 1
    35   14   33 1
    36   16   34 1
    37   16   35 1
    38   16   36 1
    39   17   37 1
    40   17   38 1
    41   17   39 1
    42   18   40 1
    43   18   41 1
    44   19   42 1
    45   19   43 1
    46   20   44 1
    47   20   45 1
    48   22   46 1
