
  -OEChem-08221716173D

 96 96  0     0  0  0  0  0  0999 V2000
    9.3728   40.6207   25.9615 C   0  0  0  0  0  0  0  0  0  0  0  0
    8.7304   39.4251   25.6399 C   0  0  0  0  0  0  0  0  0  0  0  0
    9.5175   40.9976   27.2967 C   0  0  0  0  0  0  0  0  0  0  0  0
    8.2325   38.6063   26.6536 C   0  0  0  0  0  0  0  0  0  0  0  0
    9.0196   40.1788   28.3103 C   0  0  0  0  0  0  0  0  0  0  0  0
    8.3771   38.9832   27.9888 C   0  0  0  0  0  0  0  0  0  0  0  0
   10.3604   33.8509   22.7705 C   0  0  0  0  0  0  0  0  0  0  0  0
    8.2239   32.4135   25.1399 C   0  0  0  0  0  0  0  0  0  0  0  0
    6.3959   35.4785   22.7669 C   0  0  0  0  0  0  0  0  0  0  0  0
   14.2726   42.4627   31.1855 C   0  0  0  0  0  0  0  0  0  0  0  0
   10.3842   43.7657   32.4098 C   0  0  0  0  0  0  0  0  0  0  0  0
   12.7518   40.2651   33.3330 C   0  0  0  0  0  0  0  0  0  0  0  0
   10.3567   33.3782   30.7035 C   0  0  0  0  0  0  0  0  0  0  0  0
    9.8351   37.0738   32.7979 C   0  0  0  0  0  0  0  0  0  0  0  0
    7.1259   33.8723   31.7387 C   0  0  0  0  0  0  0  0  0  0  0  0
    9.8736   34.5319   24.0309 C   0  0  0  0  0  0  0  0  0  0  0  0
    7.7766   33.2019   23.9284 C   0  0  0  0  0  0  0  0  0  0  0  0
    7.9071   35.4062   22.7880 C   0  0  0  0  0  0  0  0  0  0  0  0
   13.0922   41.6037   30.7876 C   0  0  0  0  0  0  0  0  0  0  0  0
   11.5588   43.4163   31.5222 C   0  0  0  0  0  0  0  0  0  0  0  0
   12.3348   41.7083   33.1523 C   0  0  0  0  0  0  0  0  0  0  0  0
    9.4396   34.4085   30.0816 C   0  0  0  0  0  0  0  0  0  0  0  0
   10.2468   36.0841   31.7300 C   0  0  0  0  0  0  0  0  0  0  0  0
    8.3223   34.6154   32.2917 C   0  0  0  0  0  0  0  0  0  0  0  0
    7.8579   35.2921   25.2702 C   0  0  0  0  0  0  0  0  0  0  0  0
   10.7316   41.0785   31.3606 C   0  0  0  0  0  0  0  0  0  0  0  0
    8.0609   36.4118   30.5942 C   0  0  0  0  0  0  0  0  0  0  0  0
    8.0320   36.7914   25.1299 C   0  0  0  0  0  0  0  0  0  0  0  0
   10.3124   41.3472   29.9288 C   0  0  0  0  0  0  0  0  0  0  0  0
    8.7677   37.1914   29.5030 C   0  0  0  0  0  0  0  0  0  0  0  0
    8.3538   34.6080   24.0043 N   0  3  0  0  0  0  0  0  0  0  0  0
   11.9001   41.9303   31.6973 N   0  3  0  0  0  0  0  0  0  0  0  0
    8.9940   35.4052   31.1602 N   0  3  0  0  0  0  0  0  0  0  0  0
    7.6041   37.4340   26.3234 O   0  0  0  0  0  0  0  0  0  0  0  0
    9.1677   40.5584   29.6103 O   0  0  0  0  0  0  0  0  0  0  0  0
    7.8885   38.1844   28.9798 O   0  0  0  0  0  0  0  0  0  0  0  0
    9.7607   41.2580   25.1723 H   0  0  0  0  0  0  0  0  0  0  0  0
    8.6203   39.1368   24.5981 H   0  0  0  0  0  0  0  0  0  0  0  0
   10.0185   41.9302   27.5410 H   0  0  0  0  0  0  0  0  0  0  0  0
    9.9746   32.8281   22.7203 H   0  0  0  0  0  0  0  0  0  0  0  0
   10.0220   34.3846   21.8763 H   0  0  0  0  0  0  0  0  0  0  0  0
   11.4540   33.8018   22.7442 H   0  0  0  0  0  0  0  0  0  0  0  0
    9.3148   32.3276   25.1532 H   0  0  0  0  0  0  0  0  0  0  0  0
    7.9117   32.9032   26.0682 H   0  0  0  0  0  0  0  0  0  0  0  0
    7.8048   31.4020   25.1309 H   0  0  0  0  0  0  0  0  0  0  0  0
    5.9706   34.4737   22.6829 H   0  0  0  0  0  0  0  0  0  0  0  0
    6.0087   35.9344   23.6841 H   0  0  0  0  0  0  0  0  0  0  0  0
    6.0397   36.0691   21.9164 H   0  0  0  0  0  0  0  0  0  0  0  0
   14.0308   43.5218   31.0536 H   0  0  0  0  0  0  0  0  0  0  0  0
   14.5408   42.3050   32.2353 H   0  0  0  0  0  0  0  0  0  0  0  0
   15.1511   42.2370   30.5719 H   0  0  0  0  0  0  0  0  0  0  0  0
    9.5045   43.1835   32.1191 H   0  0  0  0  0  0  0  0  0  0  0  0
   10.6030   43.5469   33.4601 H   0  0  0  0  0  0  0  0  0  0  0  0
   10.1292   44.8276   32.3291 H   0  0  0  0  0  0  0  0  0  0  0  0
   11.9071   39.5995   33.1305 H   0  0  0  0  0  0  0  0  0  0  0  0
   13.5640   39.9991   32.6486 H   0  0  0  0  0  0  0  0  0  0  0  0
   13.0933   40.0769   34.3563 H   0  0  0  0  0  0  0  0  0  0  0  0
   11.2531   33.8624   31.1031 H   0  0  0  0  0  0  0  0  0  0  0  0
    9.8610   32.8521   31.5259 H   0  0  0  0  0  0  0  0  0  0  0  0
   10.6744   32.6342   29.9656 H   0  0  0  0  0  0  0  0  0  0  0  0
    9.1990   37.8527   32.3663 H   0  0  0  0  0  0  0  0  0  0  0  0
    9.2722   36.5817   33.5978 H   0  0  0  0  0  0  0  0  0  0  0  0
   10.7086   37.5596   33.2454 H   0  0  0  0  0  0  0  0  0  0  0  0
    6.3914   34.5801   31.3424 H   0  0  0  0  0  0  0  0  0  0  0  0
    7.4191   33.1987   30.9268 H   0  0  0  0  0  0  0  0  0  0  0  0
    6.6363   33.2760   32.5158 H   0  0  0  0  0  0  0  0  0  0  0  0
   10.2454   35.5574   24.1061 H   0  0  0  0  0  0  0  0  0  0  0  0
   10.1514   33.9702   24.9271 H   0  0  0  0  0  0  0  0  0  0  0  0
    6.6884   33.3029   23.8907 H   0  0  0  0  0  0  0  0  0  0  0  0
    8.1398   32.7553   22.9987 H   0  0  0  0  0  0  0  0  0  0  0  0
    8.3585   36.3986   22.8715 H   0  0  0  0  0  0  0  0  0  0  0  0
    8.2997   34.8935   21.9055 H   0  0  0  0  0  0  0  0  0  0  0  0
   13.3074   40.5387   30.9100 H   0  0  0  0  0  0  0  0  0  0  0  0
   12.7759   41.8022   29.7598 H   0  0  0  0  0  0  0  0  0  0  0  0
   12.4528   43.9852   31.7918 H   0  0  0  0  0  0  0  0  0  0  0  0
   11.3264   43.5702   30.4648 H   0  0  0  0  0  0  0  0  0  0  0  0
   13.1619   42.3960   33.3489 H   0  0  0  0  0  0  0  0  0  0  0  0
   11.4809   41.9649   33.7854 H   0  0  0  0  0  0  0  0  0  0  0  0
    8.5344   33.9505   29.6736 H   0  0  0  0  0  0  0  0  0  0  0  0
    9.9473   34.9840   29.3025 H   0  0  0  0  0  0  0  0  0  0  0  0
   10.8844   35.2936   32.1353 H   0  0  0  0  0  0  0  0  0  0  0  0
   10.7528   36.5771   30.8953 H   0  0  0  0  0  0  0  0  0  0  0  0
    9.0730   33.9303   32.6950 H   0  0  0  0  0  0  0  0  0  0  0  0
    8.0302   35.3382   33.0586 H   0  0  0  0  0  0  0  0  0  0  0  0
    6.8078   35.0079   25.3830 H   0  0  0  0  0  0  0  0  0  0  0  0
    8.4513   34.8915   26.0963 H   0  0  0  0  0  0  0  0  0  0  0  0
   11.0518   40.0434   31.5089 H   0  0  0  0  0  0  0  0  0  0  0  0
    9.9402   41.3373   32.0691 H   0  0  0  0  0  0  0  0  0  0  0  0
    7.2012   35.8545   30.2117 H   0  0  0  0  0  0  0  0  0  0  0  0
    7.7576   37.0586   31.4217 H   0  0  0  0  0  0  0  0  0  0  0  0
    9.0894   37.0301   24.9784 H   0  0  0  0  0  0  0  0  0  0  0  0
    7.4576   37.1882   24.2864 H   0  0  0  0  0  0  0  0  0  0  0  0
   10.0393   42.4007   29.8130 H   0  0  0  0  0  0  0  0  0  0  0  0
   11.1145   41.1121   29.2216 H   0  0  0  0  0  0  0  0  0  0  0  0
    9.6433   37.7005   29.9176 H   0  0  0  0  0  0  0  0  0  0  0  0
    9.0940   36.5391   28.6864 H   0  0  0  0  0  0  0  0  0  0  0  0
  1  2  1  0  0  0  0
  1  3  2  0  0  0  0
  2  4  2  0  0  0  0
  3  5  1  0  0  0  0
  4  6  1  0  0  0  0
  4 34  1  0  0  0  0
  5  6  2  0  0  0  0
  5 35  1  0  0  0  0
  6 36  1  0  0  0  0
  7 16  1  0  0  0  0
  8 17  1  0  0  0  0
  9 18  1  0  0  0  0
 10 19  1  0  0  0  0
 11 20  1  0  0  0  0
 12 21  1  0  0  0  0
 13 22  1  0  0  0  0
 14 23  1  0  0  0  0
 15 24  1  0  0  0  0
 16 31  1  0  0  0  0
 17 31  1  0  0  0  0
 18 31  1  0  0  0  0
 19 32  1  0  0  0  0
 20 32  1  0  0  0  0
 21 32  1  0  0  0  0
 22 33  1  0  0  0  0
 23 33  1  0  0  0  0
 24 33  1  0  0  0  0
 25 28  1  0  0  0  0
 25 31  1  0  0  0  0
 26 29  1  0  0  0  0
 26 32  1  0  0  0  0
 27 30  1  0  0  0  0
 27 33  1  0  0  0  0
 28 34  1  0  0  0  0
 29 35  1  0  0  0  0
 30 36  1  0  0  0  0
  1 37  1  0  0  0  0
  2 38  1  0  0  0  0
  3 39  1  0  0  0  0
  7 40  1  0  0  0  0
  7 41  1  0  0  0  0
  7 42  1  0  0  0  0
  8 43  1  0  0  0  0
  8 44  1  0  0  0  0
  8 45  1  0  0  0  0
  9 46  1  0  0  0  0
  9 47  1  0  0  0  0
  9 48  1  0  0  0  0
 10 49  1  0  0  0  0
 10 50  1  0  0  0  0
 10 51  1  0  0  0  0
 11 52  1  0  0  0  0
 11 53  1  0  0  0  0
 11 54  1  0  0  0  0
 12 55  1  0  0  0  0
 12 56  1  0  0  0  0
 12 57  1  0  0  0  0
 13 58  1  0  0  0  0
 13 59  1  0  0  0  0
 13 60  1  0  0  0  0
 14 61  1  0  0  0  0
 14 62  1  0  0  0  0
 14 63  1  0  0  0  0
 15 64  1  0  0  0  0
 15 65  1  0  0  0  0
 15 66  1  0  0  0  0
 16 67  1  0  0  0  0
 16 68  1  0  0  0  0
 17 69  1  0  0  0  0
 17 70  1  0  0  0  0
 18 71  1  0  0  0  0
 18 72  1  0  0  0  0
 19 73  1  0  0  0  0
 19 74  1  0  0  0  0
 20 75  1  0  0  0  0
 20 76  1  0  0  0  0
 21 77  1  0  0  0  0
 21 78  1  0  0  0  0
 22 79  1  0  0  0  0
 22 80  1  0  0  0  0
 23 81  1  0  0  0  0
 23 82  1  0  0  0  0
 24 83  1  0  0  0  0
 24 84  1  0  0  0  0
 25 85  1  0  0  0  0
 25 86  1  0  0  0  0
 26 87  1  0  0  0  0
 26 88  1  0  0  0  0
 27 89  1  0  0  0  0
 27 90  1  0  0  0  0
 28 91  1  0  0  0  0
 28 92  1  0  0  0  0
 29 93  1  0  0  0  0
 29 94  1  0  0  0  0
 30 95  1  0  0  0  0
 30 96  1  0  0  0  0
M  CHG  3  31   1  32   1  33   1
M  END
> <Chemgauss4>
-1.199785

$$$$
