
  -OEChem-08221716173D

 30 32  0     1  0  0  0  0  0999 V2000
    8.5986   38.9648   29.6649 C   0  0  0  0  0  0  0  0  0  0  0  0
   11.0737   38.5652   29.7949 C   0  0  0  0  0  0  0  0  0  0  0  0
    9.5400   37.5533   31.5153 C   0  0  0  0  0  0  0  0  0  0  0  0
    9.7230   37.4979   27.9704 C   0  0  0  0  0  0  0  0  0  0  0  0
    8.1925   36.4905   29.6852 C   0  0  0  0  0  0  0  0  0  0  0  0
   10.6696   36.0828   29.8156 C   0  0  0  0  0  0  0  0  0  0  0  0
    9.8814   38.7575   28.8386 C   0  0  1  0  0  0  0  0  0  0  0  0
    8.3417   37.7427   30.5658 C   0  0  2  0  0  0  0  0  0  0  0  0
   10.8199   37.3387   30.6885 C   0  0  0  0  0  0  0  0  0  0  0  0
    9.4744   36.2677   28.8614 C   0  0  0  0  0  0  0  0  0  0  0  0
   11.9710   37.1587   31.6087 N   0  3  0  0  0  0  0  0  0  0  0  0
    9.3289   35.1202   28.0373 O   0  0  0  0  0  0  0  0  0  0  0  0
    8.6915   39.8689   30.2790 H   0  0  0  0  0  0  0  0  0  0  0  0
    7.7442   39.1207   28.9947 H   0  0  0  0  0  0  0  0  0  0  0  0
   11.9962   38.4357   29.2145 H   0  0  0  0  0  0  0  0  0  0  0  0
   11.2073   39.4673   30.4059 H   0  0  0  0  0  0  0  0  0  0  0  0
    9.6419   38.4338   32.1628 H   0  0  0  0  0  0  0  0  0  0  0  0
    9.3577   36.6945   32.1741 H   0  0  0  0  0  0  0  0  0  0  0  0
    8.8945   37.6236   27.2613 H   0  0  0  0  0  0  0  0  0  0  0  0
   10.6183   37.3425   27.3545 H   0  0  0  0  0  0  0  0  0  0  0  0
    7.9845   35.6095   30.3060 H   0  0  0  0  0  0  0  0  0  0  0  0
    7.3280   36.5924   29.0164 H   0  0  0  0  0  0  0  0  0  0  0  0
   11.5834   35.8909   29.2370 H   0  0  0  0  0  0  0  0  0  0  0  0
   10.5198   35.1880   30.4349 H   0  0  0  0  0  0  0  0  0  0  0  0
   10.0559   39.6298   28.1993 H   0  0  0  0  0  0  0  0  0  0  0  0
    7.4273   37.8977   31.1490 H   0  0  0  0  0  0  0  0  0  0  0  0
   11.7022   36.6017   32.4263 H   0  0  0  0  0  0  0  0  0  0  0  0
   12.3172   38.0644   31.9421 H   0  0  0  0  0  0  0  0  0  0  0  0
   12.7442   36.6776   31.1376 H   0  0  0  0  0  0  0  0  0  0  0  0
    9.1741   34.3663   28.6297 H   0  0  0  0  0  0  0  0  0  0  0  0
  1  7  1  0  0  0  0
  1  8  1  0  0  0  0
  2  7  1  0  0  0  0
  2  9  1  0  0  0  0
  3  8  1  0  0  0  0
  3  9  1  0  0  0  0
  4  7  1  0  0  0  0
  4 10  1  0  0  0  0
  5  8  1  0  0  0  0
  5 10  1  0  0  0  0
  6  9  1  0  0  0  0
  6 10  1  0  0  0  0
  9 11  1  0  0  0  0
 10 12  1  0  0  0  0
  1 13  1  0  0  0  0
  1 14  1  0  0  0  0
  2 15  1  0  0  0  0
  2 16  1  0  0  0  0
  3 17  1  0  0  0  0
  3 18  1  0  0  0  0
  4 19  1  0  0  0  0
  4 20  1  0  0  0  0
  5 21  1  0  0  0  0
  5 22  1  0  0  0  0
  6 23  1  0  0  0  0
  6 24  1  0  0  0  0
  7 25  1  0  0  0  0
  8 26  1  0  0  0  0
 11 27  1  0  0  0  0
 11 28  1  0  0  0  0
 11 29  1  0  0  0  0
 12 30  1  0  0  0  0
M  CHG  1  11   1
M  END
> <Chemgauss4>
-9.430134

$$$$
