@<TRIPOS>MOLECULE
*****
   96    96     0     0     0
SMALL
USER_CHARGES

@<TRIPOS>ATOM
      1 C1          9.3728   40.6207   25.9615 C.ar      1 CB8-G4        -0.0371
      2 C2          8.7304   39.4251   25.6399 C.ar      1 CB8-G4        -0.2058
      3 C3          9.5175   40.9976   27.2967 C.ar      1 CB8-G4        -0.2058
      4 C4          8.2325   38.6063   26.6536 C.ar      1 CB8-G4         0.1376
      5 C5          9.0196   40.1788   28.3103 C.ar      1 CB8-G4         0.1376
      6 C6          8.3771   38.9832   27.9888 C.ar      1 CB8-G4         0.0302
      7 C7         10.3604   33.8509   22.7705 C.3       1 CB8-G4        -0.1309
      8 C8          8.2239   32.4135   25.1399 C.3       1 CB8-G4        -0.1309
      9 C9          6.3959   35.4785   22.7669 C.3       1 CB8-G4        -0.1309
     10 C10        14.2726   42.4627   31.1855 C.3       1 CB8-G4        -0.1309
     11 C11        10.3842   43.7657   32.4098 C.3       1 CB8-G4        -0.1309
     12 C12        12.7518   40.2651   33.3330 C.3       1 CB8-G4        -0.1309
     13 C13        10.3567   33.3782   30.7035 C.3       1 CB8-G4        -0.1303
     14 C14         9.8351   37.0738   32.7979 C.3       1 CB8-G4        -0.1303
     15 C15         7.1259   33.8723   31.7387 C.3       1 CB8-G4        -0.1303
     16 C16         9.8736   34.5319   24.0309 C.3       1 CB8-G4         0.1149
     17 C17         7.7766   33.2019   23.9284 C.3       1 CB8-G4         0.1149
     18 C18         7.9071   35.4062   22.7880 C.3       1 CB8-G4         0.1149
     19 C19        13.0922   41.6037   30.7876 C.3       1 CB8-G4         0.1149
     20 C20        11.5588   43.4163   31.5222 C.3       1 CB8-G4         0.1149
     21 C21        12.3348   41.7083   33.1523 C.3       1 CB8-G4         0.1149
     22 C22         9.4396   34.4085   30.0816 C.3       1 CB8-G4         0.1155
     23 C23        10.2468   36.0841   31.7300 C.3       1 CB8-G4         0.1155
     24 C24         8.3223   34.6154   32.2917 C.3       1 CB8-G4         0.1155
     25 C25         7.8579   35.2921   25.2702 C.3       1 CB8-G4         0.1034
     26 C26        10.7316   41.0785   31.3606 C.3       1 CB8-G4         0.1034
     27 C27         8.0609   36.4118   30.5942 C.3       1 CB8-G4         0.1037
     28 C28         8.0320   36.7914   25.1299 C.3       1 CB8-G4         0.1023
     29 C29        10.3124   41.3472   29.9288 C.3       1 CB8-G4         0.1023
     30 C30         8.7677   37.1914   29.5030 C.3       1 CB8-G4         0.1065
     31 N1          8.3538   34.6080   24.0043 N.4       1 CB8-G4        -0.6119
     32 N2         11.9001   41.9303   31.6973 N.4       1 CB8-G4        -0.6119
     33 N3          8.9940   35.4052   31.1602 N.4       1 CB8-G4        -0.6099
     34 O1          7.6041   37.4340   26.3234 O.3       1 CB8-G4        -0.3177
     35 O2          9.1677   40.5584   29.6103 O.3       1 CB8-G4        -0.3177
     36 O3          7.8885   38.1844   28.9798 O.3       1 CB8-G4        -0.2886
     37 H1          9.7607   41.2580   25.1723 H         1 CB8-G4         0.1735
     38 H2          8.6203   39.1368   24.5981 H         1 CB8-G4         0.1568
     39 H3         10.0185   41.9302   27.5410 H         1 CB8-G4         0.1568
     40 H4          9.9746   32.8281   22.7203 H         1 CB8-G4         0.0789
     41 H5         10.0220   34.3846   21.8763 H         1 CB8-G4         0.0789
     42 H6         11.4540   33.8018   22.7442 H         1 CB8-G4         0.0789
     43 H7          9.3148   32.3276   25.1532 H         1 CB8-G4         0.0789
     44 H8          7.9117   32.9032   26.0682 H         1 CB8-G4         0.0789
     45 H9          7.8048   31.4020   25.1309 H         1 CB8-G4         0.0789
     46 H10         5.9706   34.4737   22.6829 H         1 CB8-G4         0.0789
     47 H11         6.0087   35.9344   23.6841 H         1 CB8-G4         0.0789
     48 H12         6.0397   36.0691   21.9164 H         1 CB8-G4         0.0789
     49 H13        14.0308   43.5218   31.0536 H         1 CB8-G4         0.0789
     50 H14        14.5408   42.3050   32.2353 H         1 CB8-G4         0.0789
     51 H15        15.1511   42.2370   30.5719 H         1 CB8-G4         0.0789
     52 H16         9.5045   43.1835   32.1191 H         1 CB8-G4         0.0789
     53 H17        10.6030   43.5469   33.4601 H         1 CB8-G4         0.0789
     54 H18        10.1292   44.8276   32.3291 H         1 CB8-G4         0.0789
     55 H19        11.9071   39.5995   33.1305 H         1 CB8-G4         0.0789
     56 H20        13.5640   39.9991   32.6486 H         1 CB8-G4         0.0789
     57 H21        13.0933   40.0769   34.3563 H         1 CB8-G4         0.0789
     58 H22        11.2531   33.8624   31.1031 H         1 CB8-G4         0.0775
     59 H23         9.8610   32.8521   31.5259 H         1 CB8-G4         0.0775
     60 H24        10.6744   32.6342   29.9656 H         1 CB8-G4         0.0775
     61 H25         9.1990   37.8527   32.3663 H         1 CB8-G4         0.0775
     62 H26         9.2722   36.5817   33.5978 H         1 CB8-G4         0.0775
     63 H27        10.7086   37.5596   33.2454 H         1 CB8-G4         0.0775
     64 H28         6.3914   34.5801   31.3424 H         1 CB8-G4         0.0775
     65 H29         7.4191   33.1987   30.9268 H         1 CB8-G4         0.0775
     66 H30         6.6363   33.2760   32.5158 H         1 CB8-G4         0.0775
     67 H31        10.2454   35.5574   24.1061 H         1 CB8-G4         0.0995
     68 H32        10.1514   33.9702   24.9271 H         1 CB8-G4         0.0995
     69 H33         6.6884   33.3029   23.8907 H         1 CB8-G4         0.0995
     70 H34         8.1398   32.7553   22.9987 H         1 CB8-G4         0.0995
     71 H35         8.3585   36.3986   22.8715 H         1 CB8-G4         0.0995
     72 H36         8.2997   34.8935   21.9055 H         1 CB8-G4         0.0995
     73 H37        13.3074   40.5387   30.9100 H         1 CB8-G4         0.0995
     74 H38        12.7759   41.8022   29.7598 H         1 CB8-G4         0.0995
     75 H39        12.4528   43.9852   31.7918 H         1 CB8-G4         0.0995
     76 H40        11.3264   43.5702   30.4648 H         1 CB8-G4         0.0995
     77 H41        13.1619   42.3960   33.3489 H         1 CB8-G4         0.0995
     78 H42        11.4809   41.9649   33.7854 H         1 CB8-G4         0.0995
     79 H43         8.5344   33.9505   29.6736 H         1 CB8-G4         0.0965
     80 H44         9.9473   34.9840   29.3025 H         1 CB8-G4         0.0965
     81 H45        10.8844   35.2936   32.1353 H         1 CB8-G4         0.0965
     82 H46        10.7528   36.5771   30.8953 H         1 CB8-G4         0.0965
     83 H47         9.0730   33.9303   32.6950 H         1 CB8-G4         0.0965
     84 H48         8.0302   35.3382   33.0586 H         1 CB8-G4         0.0965
     85 H49         6.8078   35.0079   25.3830 H         1 CB8-G4         0.1060
     86 H50         8.4513   34.8915   26.0963 H         1 CB8-G4         0.1060
     87 H51        11.0518   40.0434   31.5089 H         1 CB8-G4         0.1060
     88 H52         9.9402   41.3373   32.0691 H         1 CB8-G4         0.1060
     89 H53         7.2012   35.8545   30.2117 H         1 CB8-G4         0.1159
     90 H54         7.7576   37.0586   31.4217 H         1 CB8-G4         0.1159
     91 H55         9.0894   37.0301   24.9784 H         1 CB8-G4         0.0718
     92 H56         7.4576   37.1882   24.2864 H         1 CB8-G4         0.0718
     93 H57        10.0393   42.4007   29.8130 H         1 CB8-G4         0.0718
     94 H58        11.1145   41.1121   29.2216 H         1 CB8-G4         0.0718
     95 H59         9.6433   37.7005   29.9176 H         1 CB8-G4         0.0497
     96 H60         9.0940   36.5391   28.6864 H         1 CB8-G4         0.0497
@<TRIPOS>BOND
     1    1    2 ar
     2    1    3 ar
     3    2    4 ar
     4    3    5 ar
     5    4    6 ar
     6    4   34 1
     7    5    6 ar
     8    5   35 1
     9    6   36 1
    10    7   16 1
    11    8   17 1
    12    9   18 1
    13   10   19 1
    14   11   20 1
    15   12   21 1
    16   13   22 1
    17   14   23 1
    18   15   24 1
    19   16   31 1
    20   17   31 1
    21   18   31 1
    22   19   32 1
    23   20   32 1
    24   21   32 1
    25   22   33 1
    26   23   33 1
    27   24   33 1
    28   25   28 1
    29   25   31 1
    30   26   29 1
    31   26   32 1
    32   27   30 1
    33   27   33 1
    34   28   34 1
    35   29   35 1
    36   30   36 1
    37    1   37 1
    38    2   38 1
    39    3   39 1
    40    7   40 1
    41    7   41 1
    42    7   42 1
    43    8   43 1
    44    8   44 1
    45    8   45 1
    46    9   46 1
    47    9   47 1
    48    9   48 1
    49   10   49 1
    50   10   50 1
    51   10   51 1
    52   11   52 1
    53   11   53 1
    54   11   54 1
    55   12   55 1
    56   12   56 1
    57   12   57 1
    58   13   58 1
    59   13   59 1
    60   13   60 1
    61   14   61 1
    62   14   62 1
    63   14   63 1
    64   15   64 1
    65   15   65 1
    66   15   66 1
    67   16   67 1
    68   16   68 1
    69   17   69 1
    70   17   70 1
    71   18   71 1
    72   18   72 1
    73   19   73 1
    74   19   74 1
    75   20   75 1
    76   20   76 1
    77   21   77 1
    78   21   78 1
    79   22   79 1
    80   22   80 1
    81   23   81 1
    82   23   82 1
    83   24   83 1
    84   24   84 1
    85   25   85 1
    86   25   86 1
    87   26   87 1
    88   26   88 1
    89   27   89 1
    90   27   90 1
    91   28   91 1
    92   28   92 1
    93   29   93 1
    94   29   94 1
    95   30   95 1
    96   30   96 1
