
  -OEChem-08221715453D

 49 52  0     1  0  0  0  0  0999 V2000
   11.9461   40.4393   33.0356 C   0  0  0  0  0  0  0  0  0  0  0  0
   12.0032   41.7077   32.4527 C   0  0  0  0  0  0  0  0  0  0  0  0
   11.2160   37.0578   30.7330 C   0  0  0  0  0  0  0  0  0  0  0  0
   11.5693   40.7278   30.3013 C   0  0  0  0  0  0  0  0  0  0  0  0
   11.4145   37.0064   32.0978 C   0  0  0  0  0  0  0  0  0  0  0  0
   11.5119   39.4522   30.8879 C   0  0  0  0  0  0  0  0  0  0  0  0
   11.2667   38.3033   30.1238 C   0  0  0  0  0  0  0  0  0  0  0  0
   11.7023   39.2977   32.2771 C   0  0  0  0  0  0  0  0  0  0  0  0
   11.8145   41.8525   31.0838 C   0  0  0  0  0  0  0  0  0  0  0  0
    7.3493   35.1788   27.7167 C   0  0  0  0  0  0  0  0  0  0  0  0
    6.8437   36.0726   26.8600 C   0  0  0  0  0  0  0  0  0  0  0  0
    8.4148   39.5308   26.2065 C   0  0  0  0  0  0  0  0  0  0  0  0
    9.6174   37.4247   26.7236 C   0  0  0  0  0  0  0  0  0  0  0  0
    8.5709   39.9728   27.6610 C   0  0  0  0  0  0  0  0  0  0  0  0
    7.2385   38.0137   28.4080 C   0  0  0  0  0  0  0  0  0  0  0  0
    7.0875   37.5502   26.9471 C   0  0  1  0  0  0  0  0  0  0  0  0
    8.3186   37.9962   26.1187 C   0  0  1  0  0  0  0  0  0  0  0  0
    9.7075   37.7733   28.2168 C   0  0  1  0  0  0  0  0  0  0  0  0
   12.1239   44.1922   31.3771 C   0  0  0  0  0  0  0  0  0  0  0  0
   11.0498   38.3606   28.6306 C   0  0  2  0  0  0  0  0  0  0  0  0
   11.6538   38.0902   32.8710 N   0  0  0  0  0  0  0  0  0  0  0  0
    8.5717   38.7378   28.5426 N   0  3  1  0  0  0  0  0  0  0  0  0
   12.0922   37.6222   27.9965 O   0  0  0  0  0  0  0  0  0  0  0  0
   11.8689   43.0856   30.5126 O   0  0  0  0  0  0  0  0  0  0  0  0
   12.0967   40.3531   34.1102 H   0  0  0  0  0  0  0  0  0  0  0  0
   12.1962   42.5762   33.0765 H   0  0  0  0  0  0  0  0  0  0  0  0
   11.0284   36.1520   30.1670 H   0  0  0  0  0  0  0  0  0  0  0  0
   11.4245   40.8627   29.2317 H   0  0  0  0  0  0  0  0  0  0  0  0
   11.3856   36.0604   32.6286 H   0  0  0  0  0  0  0  0  0  0  0  0
    7.1350   34.1223   27.5984 H   0  0  0  0  0  0  0  0  0  0  0  0
    7.9812   35.4808   28.5448 H   0  0  0  0  0  0  0  0  0  0  0  0
    6.2158   35.7209   26.0461 H   0  0  0  0  0  0  0  0  0  0  0  0
    7.5209   39.9945   25.7721 H   0  0  0  0  0  0  0  0  0  0  0  0
    9.2656   39.8941   25.6173 H   0  0  0  0  0  0  0  0  0  0  0  0
    9.6525   36.3356   26.6011 H   0  0  0  0  0  0  0  0  0  0  0  0
   10.4834   37.8161   26.1749 H   0  0  0  0  0  0  0  0  0  0  0  0
    9.5025   40.5178   27.8358 H   0  0  0  0  0  0  0  0  0  0  0  0
    7.7381   40.6051   27.9870 H   0  0  0  0  0  0  0  0  0  0  0  0
    6.4579   38.7294   28.6890 H   0  0  0  0  0  0  0  0  0  0  0  0
    7.2395   37.1994   29.1412 H   0  0  0  0  0  0  0  0  0  0  0  0
    6.1933   38.0310   26.5288 H   0  0  0  0  0  0  0  0  0  0  0  0
    8.2223   37.6883   25.0712 H   0  0  0  0  0  0  0  0  0  0  0  0
    9.5247   36.8784   28.8245 H   0  0  0  0  0  0  0  0  0  0  0  0
   12.1412   45.1155   30.7930 H   0  0  0  0  0  0  0  0  0  0  0  0
   13.0834   44.0489   31.8805 H   0  0  0  0  0  0  0  0  0  0  0  0
   11.3283   44.2508   32.1236 H   0  0  0  0  0  0  0  0  0  0  0  0
   11.1121   39.3916   28.2628 H   0  0  0  0  0  0  0  0  0  0  0  0
    8.6682   39.0395   29.5217 H   0  0  0  0  0  0  0  0  0  0  0  0
   12.0279   36.7139   28.3294 H   0  0  0  0  0  0  0  0  0  0  0  0
  1  2  1  0  0  0  0
  1  8  2  0  0  0  0
  2  9  2  0  0  0  0
  3  5  1  0  0  0  0
  3  7  2  0  0  0  0
  4  6  2  0  0  0  0
  4  9  1  0  0  0  0
  5 21  2  0  0  0  0
  6  7  1  0  0  0  0
  6  8  1  0  0  0  0
  7 20  1  0  0  0  0
  8 21  1  0  0  0  0
  9 24  1  0  0  0  0
 10 11  2  0  0  0  0
 11 16  1  0  0  0  0
 12 14  1  0  0  0  0
 12 17  1  0  0  0  0
 13 17  1  0  0  0  0
 13 18  1  0  0  0  0
 14 22  1  0  0  0  0
 15 16  1  0  0  0  0
 15 22  1  0  0  0  0
 16 17  1  0  0  0  0
 18 20  1  0  0  0  0
 18 22  1  0  0  0  0
 19 24  1  0  0  0  0
 20 23  1  0  0  0  0
  1 25  1  0  0  0  0
  2 26  1  0  0  0  0
  3 27  1  0  0  0  0
  4 28  1  0  0  0  0
  5 29  1  0  0  0  0
 10 30  1  0  0  0  0
 10 31  1  0  0  0  0
 11 32  1  0  0  0  0
 12 33  1  0  0  0  0
 12 34  1  0  0  0  0
 13 35  1  0  0  0  0
 13 36  1  0  0  0  0
 14 37  1  0  0  0  0
 14 38  1  0  0  0  0
 15 39  1  0  0  0  0
 15 40  1  0  0  0  0
 16 41  1  0  0  0  0
 17 42  1  0  0  0  0
 18 43  1  0  0  0  0
 19 44  1  0  0  0  0
 19 45  1  0  0  0  0
 19 46  1  0  0  0  0
 20 47  1  0  0  0  0
 22 48  1  0  0  0  0
 23 49  1  0  0  0  0
M  CHG  1  22   1
M  END
> <Chemgauss4>
-9.237130

$$$$
