@<TRIPOS>MOLECULE
*****
   56    57     0     0     0
SMALL
USER_CHARGES

@<TRIPOS>ATOM
      1 C1          6.4156   36.9733   25.0592 C.ar      1 CB8-G1        -0.1160
      2 C2          6.1601   36.6163   26.3831 C.ar      1 CB8-G1        -0.1226
      3 C3          7.3830   37.9359   24.7706 C.ar      1 CB8-G1        -0.1226
      4 C4          6.8718   37.2220   27.4186 C.ar      1 CB8-G1        -0.1270
      5 C5          8.0947   38.5416   25.8061 C.ar      1 CB8-G1        -0.1270
      6 C6          9.5845   36.0122   31.3652 C.ar      1 CB8-G1        -0.0803
      7 C7         10.4274   36.1448   30.2618 C.ar      1 CB8-G1        -0.1941
      8 C8          8.1269   37.7109   30.4560 C.ar      1 CB8-G1        -0.1063
      9 C9          7.8392   38.1846   27.1301 C.ar      1 CB8-G1        -0.0977
     10 C10         8.4342   36.7952   31.4623 C.ar      1 CB8-G1        -0.0968
     11 C11         8.9698   37.8436   29.3526 C.ar      1 CB8-G1        -0.1259
     12 C12        10.1201   37.0605   29.2555 C.ar      1 CB8-G1         0.1233
     13 C13         7.5327   36.6519   32.6416 C.3       1 CB8-G1        -0.0563
     14 C14         8.7928   42.3203   27.6141 C.3       1 CB8-G1        -0.1283
     15 C15        11.3163   42.3157   27.5377 C.3       1 CB8-G1        -0.1283
     16 C16        11.5744   39.9071   30.8619 C.3       1 CB8-G1        -0.1283
     17 C17        10.5730   42.1244   31.5363 C.3       1 CB8-G1        -0.1283
     18 C18         7.9378   40.1336   28.7985 C.3       1 CB8-G1        -0.1105
     19 C19         8.7672   40.8199   29.8809 C.3       1 CB8-G1         0.1101
     20 C20         8.6179   38.8477   28.2622 C.3       1 CB8-G1         0.0513
     21 C21        10.0802   42.3522   28.4219 C.3       1 CB8-G1         0.1329
     22 C22        11.1554   41.2947   30.4034 C.3       1 CB8-G1         0.1329
     23 N1         10.1054   41.1469   29.3297 N.4       1 CB8-G1        -0.6900
     24 O1         10.9554   37.1782   28.1854 O.3       1 CB8-G1        -0.5158
     25 H1          5.8623   36.5006   24.2529 H         1 CB8-G1         0.1446
     26 H2          5.4076   35.8660   26.6079 H         1 CB8-G1         0.1427
     27 H3          7.5830   38.2133   23.7399 H         1 CB8-G1         0.1427
     28 H4          6.6658   36.9377   28.4472 H         1 CB8-G1         0.1312
     29 H5          8.8465   39.2907   25.5719 H         1 CB8-G1         0.1312
     30 H6          9.8311   35.2958   32.1444 H         1 CB8-G1         0.1491
     31 H7         11.3208   35.5301   30.1920 H         1 CB8-G1         0.1464
     32 H8          7.2296   38.3207   30.5324 H         1 CB8-G1         0.1314
     33 H9          7.8366   37.3393   33.4406 H         1 CB8-G1         0.0511
     34 H10         6.4900   36.8680   32.3748 H         1 CB8-G1         0.0511
     35 H11         7.5535   35.6279   33.0370 H         1 CB8-G1         0.0511
     36 H12         8.7701   41.4421   26.9604 H         1 CB8-G1         0.0740
     37 H13         7.9110   42.2800   28.2634 H         1 CB8-G1         0.0740
     38 H14         8.7045   43.2102   26.9814 H         1 CB8-G1         0.0740
     39 H15        11.2961   41.4374   26.8839 H         1 CB8-G1         0.0740
     40 H16        12.2354   42.2720   28.1322 H         1 CB8-G1         0.0740
     41 H17        11.3690   43.2050   26.9004 H         1 CB8-G1         0.0740
     42 H18        10.7315   39.3840   31.3255 H         1 CB8-G1         0.0740
     43 H19        11.9303   39.2968   30.0243 H         1 CB8-G1         0.0740
     44 H20        12.3797   39.9651   31.6022 H         1 CB8-G1         0.0740
     45 H21         9.7291   41.6034   32.0006 H         1 CB8-G1         0.0740
     46 H22        10.2143   43.0964   31.1803 H         1 CB8-G1         0.0740
     47 H23        11.3221   42.3061   32.3145 H         1 CB8-G1         0.0740
     48 H24         6.9356   39.9235   29.1912 H         1 CB8-G1         0.0739
     49 H25         7.7983   40.8356   27.9648 H         1 CB8-G1         0.0739
     50 H26         8.9324   40.1689   30.7443 H         1 CB8-G1         0.1027
     51 H27         8.3269   41.7650   30.2098 H         1 CB8-G1         0.1027
     52 H28         9.5621   39.1991   27.8187 H         1 CB8-G1         0.0682
     53 H29        10.1016   43.2306   29.0750 H         1 CB8-G1         0.0987
     54 H30        11.9989   41.8165   29.9401 H         1 CB8-G1         0.0987
     55 H31        10.4080   40.3519   28.7412 H         1 CB8-G1         0.4391
     56 H32        11.7027   36.5663   28.2751 H         1 CB8-G1         0.4335
@<TRIPOS>BOND
     1    1    2 ar
     2    1    3 ar
     3    2    4 ar
     4    3    5 ar
     5    4    9 ar
     6    5    9 ar
     7    6    7 ar
     8    6   10 ar
     9    7   12 ar
    10    8   10 ar
    11    8   11 ar
    12    9   20 1
    13   10   13 1
    14   11   12 ar
    15   11   20 1
    16   12   24 1
    17   14   21 1
    18   15   21 1
    19   16   22 1
    20   17   22 1
    21   18   19 1
    22   18   20 1
    23   19   23 1
    24   21   23 1
    25   22   23 1
    26    1   25 1
    27    2   26 1
    28    3   27 1
    29    4   28 1
    30    5   29 1
    31    6   30 1
    32    7   31 1
    33    8   32 1
    34   13   33 1
    35   13   34 1
    36   13   35 1
    37   14   36 1
    38   14   37 1
    39   14   38 1
    40   15   39 1
    41   15   40 1
    42   15   41 1
    43   16   42 1
    44   16   43 1
    45   16   44 1
    46   17   45 1
    47   17   46 1
    48   17   47 1
    49   18   48 1
    50   18   49 1
    51   19   50 1
    52   19   51 1
    53   20   52 1
    54   21   53 1
    55   22   54 1
    56   23   55 1
    57   24   56 1
