
  -OEChem-08221716173D

 26 28  0     1  0  0  0  0  0999 V2000
    9.7901   37.8639   28.9083 C   0  0  0  0  0  0  0  0  0  0  0  0
    7.7302   38.8831   29.9557 C   0  0  0  0  0  0  0  0  0  0  0  0
    8.2878   36.5265   30.4359 C   0  0  0  0  0  0  0  0  0  0  0  0
    9.8046   39.5529   30.7890 C   0  0  0  0  0  0  0  0  0  0  0  0
   10.3661   37.1795   31.2726 C   0  0  0  0  0  0  0  0  0  0  0  0
    9.1498   39.1745   29.4566 C   0  0  1  0  0  0  0  0  0  0  0  0
    9.7319   36.7136   29.9580 C   0  0  2  0  0  0  0  0  0  0  0  0
    8.0159   37.8897   31.0950 C   0  0  0  0  0  0  0  0  0  0  0  0
    9.4196   38.3306   31.6292 C   0  0  0  0  0  0  0  0  0  0  0  0
    9.4274   38.6243   33.0612 N   0  3  0  0  0  0  0  0  0  0  0  0
    9.2610   37.5535   27.9994 H   0  0  0  0  0  0  0  0  0  0  0  0
   10.8345   38.0552   28.6349 H   0  0  0  0  0  0  0  0  0  0  0  0
    7.2586   39.7926   30.3473 H   0  0  0  0  0  0  0  0  0  0  0  0
    7.0809   38.4751   29.1744 H   0  0  0  0  0  0  0  0  0  0  0  0
    7.5973   36.2918   29.6194 H   0  0  0  0  0  0  0  0  0  0  0  0
    8.2219   35.7206   31.1769 H   0  0  0  0  0  0  0  0  0  0  0  0
   10.8864   39.6970   30.6987 H   0  0  0  0  0  0  0  0  0  0  0  0
    9.3725   40.4787   31.1892 H   0  0  0  0  0  0  0  0  0  0  0  0
   10.3417   36.3805   32.0242 H   0  0  0  0  0  0  0  0  0  0  0  0
   11.4075   37.4941   31.1474 H   0  0  0  0  0  0  0  0  0  0  0  0
    9.1832   39.9828   28.7215 H   0  0  0  0  0  0  0  0  0  0  0  0
   10.1750   35.7904   29.5757 H   0  0  0  0  0  0  0  0  0  0  0  0
    7.2111   37.8498   31.8335 H   0  0  0  0  0  0  0  0  0  0  0  0
   10.2301   38.1867   33.5433 H   0  0  0  0  0  0  0  0  0  0  0  0
    8.5738   38.2809   33.5324 H   0  0  0  0  0  0  0  0  0  0  0  0
    9.4839   39.6391   33.2495 H   0  0  0  0  0  0  0  0  0  0  0  0
  1  6  1  0  0  0  0
  1  7  1  0  0  0  0
  2  6  1  0  0  0  0
  2  8  1  0  0  0  0
  3  7  1  0  0  0  0
  3  8  1  0  0  0  0
  4  6  1  0  0  0  0
  4  9  1  0  0  0  0
  5  7  1  0  0  0  0
  5  9  1  0  0  0  0
  8  9  1  0  0  0  0
  9 10  1  0  0  0  0
  1 11  1  0  0  0  0
  1 12  1  0  0  0  0
  2 13  1  0  0  0  0
  2 14  1  0  0  0  0
  3 15  1  0  0  0  0
  3 16  1  0  0  0  0
  4 17  1  0  0  0  0
  4 18  1  0  0  0  0
  5 19  1  0  0  0  0
  5 20  1  0  0  0  0
  6 21  1  0  0  0  0
  7 22  1  0  0  0  0
  8 23  1  0  0  0  0
 10 24  1  0  0  0  0
 10 25  1  0  0  0  0
 10 26  1  0  0  0  0
M  CHG  1  10   1
M  END
> <Chemgauss4>
-8.613818

$$$$
