@<TRIPOS>MOLECULE
*****
   49    52     0     0     0
SMALL
USER_CHARGES

@<TRIPOS>ATOM
      1 C1         11.9461   40.4393   33.0356 C.ar      1 CB8-G3        -0.1176
      2 C2         12.0032   41.7077   32.4527 C.ar      1 CB8-G3        -0.1556
      3 C3         11.2160   37.0578   30.7330 C.ar      1 CB8-G3        -0.2406
      4 C4         11.5693   40.7278   30.3013 C.ar      1 CB8-G3        -0.2228
      5 C5         11.4145   37.0064   32.0978 C.ar      1 CB8-G3         0.3938
      6 C6         11.5119   39.4522   30.8879 C.ar      1 CB8-G3        -0.0898
      7 C7         11.2667   38.3033   30.1238 C.ar      1 CB8-G3        -0.1348
      8 C8         11.7023   39.2977   32.2771 C.ar      1 CB8-G3         0.3646
      9 C9         11.8145   41.8525   31.0838 C.ar      1 CB8-G3         0.1675
     10 C10         7.3493   35.1788   27.7167 C.2       1 CB8-G3        -0.1590
     11 C11         6.8437   36.0726   26.8600 C.2       1 CB8-G3        -0.2124
     12 C12         8.4148   39.5308   26.2065 C.3       1 CB8-G3        -0.0986
     13 C13         9.6174   37.4247   26.7236 C.3       1 CB8-G3        -0.0885
     14 C14         8.5709   39.9728   27.6610 C.3       1 CB8-G3         0.1142
     15 C15         7.2385   38.0137   28.4080 C.3       1 CB8-G3         0.1152
     16 C16         7.0875   37.5502   26.9471 C.3       1 CB8-G3        -0.0395
     17 C17         8.3186   37.9962   26.1187 C.3       1 CB8-G3        -0.0712
     18 C18         9.7075   37.7733   28.2168 C.3       1 CB8-G3         0.0970
     19 C19        12.1239   44.1922   31.3771 C.3       1 CB8-G3         0.1085
     20 C20        11.0498   38.3606   28.6306 C.3       1 CB8-G3         0.1868
     21 N1         11.6538   38.0902   32.8710 N.ar      1 CB8-G3        -0.6043
     22 N2          8.5717   38.7378   28.5426 N.4       1 CB8-G3        -0.6828
     23 O1         12.0922   37.6222   27.9965 O.3       1 CB8-G3        -0.5713
     24 O2         11.8689   43.0856   30.5126 O.3       1 CB8-G3        -0.3151
     25 H1         12.0967   40.3531   34.1102 H         1 CB8-G3         0.1723
     26 H2         12.1962   42.5762   33.0765 H         1 CB8-G3         0.1663
     27 H3         11.0284   36.1520   30.1670 H         1 CB8-G3         0.1370
     28 H4         11.4245   40.8627   29.2317 H         1 CB8-G3         0.1386
     29 H5         11.3856   36.0604   32.6286 H         1 CB8-G3         0.0432
     30 H6          7.1350   34.1223   27.5984 H         1 CB8-G3         0.1317
     31 H7          7.9812   35.4808   28.5448 H         1 CB8-G3         0.1317
     32 H8          6.2158   35.7209   26.0461 H         1 CB8-G3         0.1319
     33 H9          7.5209   39.9945   25.7721 H         1 CB8-G3         0.0862
     34 H10         9.2656   39.8941   25.6173 H         1 CB8-G3         0.0862
     35 H11         9.6525   36.3356   26.6011 H         1 CB8-G3         0.0910
     36 H12        10.4834   37.8161   26.1749 H         1 CB8-G3         0.0910
     37 H13         9.5025   40.5178   27.8358 H         1 CB8-G3         0.1016
     38 H14         7.7381   40.6051   27.9870 H         1 CB8-G3         0.1016
     39 H15         6.4579   38.7294   28.6890 H         1 CB8-G3         0.0998
     40 H16         7.2395   37.1994   29.1412 H         1 CB8-G3         0.0998
     41 H17         6.1933   38.0310   26.5288 H         1 CB8-G3         0.0881
     42 H18         8.2223   37.6883   25.0712 H         1 CB8-G3         0.1116
     43 H19         9.5247   36.8784   28.8245 H         1 CB8-G3         0.0985
     44 H20        12.1412   45.1155   30.7930 H         1 CB8-G3         0.0554
     45 H21        13.0834   44.0489   31.8805 H         1 CB8-G3         0.0554
     46 H22        11.3283   44.2508   32.1236 H         1 CB8-G3         0.0554
     47 H23        11.1121   39.3916   28.2628 H         1 CB8-G3         0.0955
     48 H24         8.6682   39.0395   29.5217 H         1 CB8-G3         0.4583
     49 H25        12.0279   36.7139   28.3294 H         1 CB8-G3         0.4279
@<TRIPOS>BOND
     1    1    2 ar
     2    1    8 ar
     3    2    9 ar
     4    3    5 ar
     5    3    7 ar
     6    4    6 ar
     7    4    9 ar
     8    5   21 ar
     9    6    7 ar
    10    6    8 ar
    11    7   20 1
    12    8   21 ar
    13    9   24 1
    14   10   11 2
    15   11   16 1
    16   12   14 1
    17   12   17 1
    18   13   17 1
    19   13   18 1
    20   14   22 1
    21   15   16 1
    22   15   22 1
    23   16   17 1
    24   18   20 1
    25   18   22 1
    26   19   24 1
    27   20   23 1
    28    1   25 1
    29    2   26 1
    30    3   27 1
    31    4   28 1
    32    5   29 1
    33   10   30 1
    34   10   31 1
    35   11   32 1
    36   12   33 1
    37   12   34 1
    38   13   35 1
    39   13   36 1
    40   14   37 1
    41   14   38 1
    42   15   39 1
    43   15   40 1
    44   16   41 1
    45   17   42 1
    46   18   43 1
    47   19   44 1
    48   19   45 1
    49   19   46 1
    50   20   47 1
    51   22   48 1
    52   23   49 1
