@<TRIPOS>MOLECULE
*****
   24    24     0     0     0
SMALL
USER_CHARGES

@<TRIPOS>ATOM
      1 C1         10.6058   37.5794   28.9609 C.3       1 CB8-G6        -0.0870
      2 C2         10.5119   36.2934   29.7799 C.3       1 CB8-G6        -0.0870
      3 C3          9.3924   37.8800   28.0825 C.3       1 CB8-G6        -0.0850
      4 C4          9.4694   36.2722   30.9093 C.3       1 CB8-G6        -0.0850
      5 C5          8.0313   37.4741   28.6432 C.3       1 CB8-G6        -0.1035
      6 C6          8.7260   37.5840   31.1542 C.3       1 CB8-G6        -0.1035
      7 C7          7.7119   37.9432   30.0628 C.3       1 CB8-G6         0.1326
      8 N1          7.5321   39.4242   30.0628 N.4       1 CB8-G6        -0.8462
      9 H1         10.7406   38.4132   29.6596 H         1 CB8-G6         0.0598
     10 H2         11.5105   37.5492   28.3432 H         1 CB8-G6         0.0598
     11 H3         10.2793   35.4694   29.0871 H         1 CB8-G6         0.0598
     12 H4         11.5036   36.0556   30.1963 H         1 CB8-G6         0.0598
     13 H5          9.3936   38.9505   27.7735 H         1 CB8-G6         0.0617
     14 H6          9.5381   37.3232   27.1298 H         1 CB8-G6         0.0617
     15 H7          8.7561   35.4337   30.7616 H         1 CB8-G6         0.0617
     16 H8         10.0134   36.0162   31.8421 H         1 CB8-G6         0.0617
     17 H9          7.2479   37.8400   27.9582 H         1 CB8-G6         0.0751
     18 H10         7.9394   36.3757   28.6052 H         1 CB8-G6         0.0751
     19 H11         8.1787   37.4999   32.1002 H         1 CB8-G6         0.0751
     20 H12         9.4493   38.3938   31.2991 H         1 CB8-G6         0.0751
     21 H13         6.7242   37.5401   30.3434 H         1 CB8-G6         0.1041
     22 H14         6.7306   39.6833   30.6397 H         1 CB8-G6         0.4579
     23 H15         7.3727   39.7607   29.1119 H         1 CB8-G6         0.4579
     24 H16         8.3651   39.8816   30.4361 H         1 CB8-G6         0.4579
@<TRIPOS>BOND
     1    1    2 1
     2    1    3 1
     3    2    4 1
     4    3    5 1
     5    4    6 1
     6    5    7 1
     7    6    7 1
     8    7    8 1
     9    1    9 1
    10    1   10 1
    11    2   11 1
    12    2   12 1
    13    3   13 1
    14    3   14 1
    15    4   15 1
    16    4   16 1
    17    5   17 1
    18    5   18 1
    19    6   19 1
    20    6   20 1
    21    7   21 1
    22    8   22 1
    23    8   23 1
    24    8   24 1
