
  -OEChem-08221716173D

 39 39  0     0  0  0  0  0  0999 V2000
    7.5951   38.8097   27.5577 C   0  0  0  0  0  0  0  0  0  0  0  0
    8.2625   40.0791   27.0218 C   0  0  0  0  0  0  0  0  0  0  0  0
    7.5006   38.7668   29.0851 C   0  0  0  0  0  0  0  0  0  0  0  0
    9.6838   40.4013   27.5173 C   0  0  0  0  0  0  0  0  0  0  0  0
    7.2118   37.3540   29.6018 C   0  0  0  0  0  0  0  0  0  0  0  0
   10.7728   39.3649   27.2027 C   0  0  0  0  0  0  0  0  0  0  0  0
    7.5410   37.1562   31.0900 C   0  0  0  0  0  0  0  0  0  0  0  0
   10.9069   38.1787   28.1679 C   0  0  0  0  0  0  0  0  0  0  0  0
    8.9839   37.4870   31.5080 C   0  0  0  0  0  0  0  0  0  0  0  0
   11.3464   38.5621   29.5876 C   0  0  0  0  0  0  0  0  0  0  0  0
   10.0594   36.6436   30.8040 C   0  0  0  0  0  0  0  0  0  0  0  0
   11.3997   37.3573   30.5458 C   0  0  0  0  0  0  0  0  0  0  0  0
   11.9580   37.8261   31.8490 N   0  3  0  0  0  0  0  0  0  0  0  0
    6.5785   38.7560   27.1459 H   0  0  0  0  0  0  0  0  0  0  0  0
    8.1179   37.9306   27.1723 H   0  0  0  0  0  0  0  0  0  0  0  0
    8.2781   40.0306   25.9161 H   0  0  0  0  0  0  0  0  0  0  0  0
    7.6149   40.9437   27.2627 H   0  0  0  0  0  0  0  0  0  0  0  0
    8.3986   39.1495   29.5423 H   0  0  0  0  0  0  0  0  0  0  0  0
    6.6826   39.4145   29.3947 H   0  0  0  0  0  0  0  0  0  0  0  0
    9.9932   41.3617   27.0569 H   0  0  0  0  0  0  0  0  0  0  0  0
    9.6418   40.6350   28.5958 H   0  0  0  0  0  0  0  0  0  0  0  0
    6.1694   37.1177   29.4313 H   0  0  0  0  0  0  0  0  0  0  0  0
    7.8121   36.6579   29.0273 H   0  0  0  0  0  0  0  0  0  0  0  0
   10.6745   38.9819   26.1691 H   0  0  0  0  0  0  0  0  0  0  0  0
   11.7470   39.8965   27.1812 H   0  0  0  0  0  0  0  0  0  0  0  0
    6.8991   37.8484   31.6473 H   0  0  0  0  0  0  0  0  0  0  0  0
    7.2554   36.1618   31.4327 H   0  0  0  0  0  0  0  0  0  0  0  0
    9.9466   37.6621   28.2156 H   0  0  0  0  0  0  0  0  0  0  0  0
   11.6295   37.4692   27.7600 H   0  0  0  0  0  0  0  0  0  0  0  0
    9.1795   38.5315   31.2990 H   0  0  0  0  0  0  0  0  0  0  0  0
    9.0693   37.3433   32.5775 H   0  0  0  0  0  0  0  0  0  0  0  0
   12.3236   39.0432   29.5397 H   0  0  0  0  0  0  0  0  0  0  0  0
   10.6561   39.3071   29.9783 H   0  0  0  0  0  0  0  0  0  0  0  0
   10.2257   35.7383   31.4037 H   0  0  0  0  0  0  0  0  0  0  0  0
    9.6479   36.2780   29.8501 H   0  0  0  0  0  0  0  0  0  0  0  0
   12.1391   36.6290   30.1902 H   0  0  0  0  0  0  0  0  0  0  0  0
   11.6578   38.7844   32.0465 H   0  0  0  0  0  0  0  0  0  0  0  0
   12.9813   37.8078   31.8302 H   0  0  0  0  0  0  0  0  0  0  0  0
   11.6401   37.2258   32.6147 H   0  0  0  0  0  0  0  0  0  0  0  0
  1  2  1  0  0  0  0
  1  3  1  0  0  0  0
  2  4  1  0  0  0  0
  3  5  1  0  0  0  0
  4  6  1  0  0  0  0
  5  7  1  0  0  0  0
  6  8  1  0  0  0  0
  7  9  1  0  0  0  0
  8 10  1  0  0  0  0
  9 11  1  0  0  0  0
 10 12  1  0  0  0  0
 11 12  1  0  0  0  0
 12 13  1  0  0  0  0
  1 14  1  0  0  0  0
  1 15  1  0  0  0  0
  2 16  1  0  0  0  0
  2 17  1  0  0  0  0
  3 18  1  0  0  0  0
  3 19  1  0  0  0  0
  4 20  1  0  0  0  0
  4 21  1  0  0  0  0
  5 22  1  0  0  0  0
  5 23  1  0  0  0  0
  6 24  1  0  0  0  0
  6 25  1  0  0  0  0
  7 26  1  0  0  0  0
  7 27  1  0  0  0  0
  8 28  1  0  0  0  0
  8 29  1  0  0  0  0
  9 30  1  0  0  0  0
  9 31  1  0  0  0  0
 10 32  1  0  0  0  0
 10 33  1  0  0  0  0
 11 34  1  0  0  0  0
 11 35  1  0  0  0  0
 12 36  1  0  0  0  0
 13 37  1  0  0  0  0
 13 38  1  0  0  0  0
 13 39  1  0  0  0  0
M  CHG  1  13   1
M  END
> <Chemgauss4>
-11.339400

$$$$
