
  -OEChem-08221715453D

 47 51  0     1  0  0  0  0  0999 V2000
   10.7109   41.6219   31.1336 C   0  0  0  0  0  0  0  0  0  0  0  0
   10.0786   41.4027   29.9118 C   0  0  0  0  0  0  0  0  0  0  0  0
   10.9578   40.5548   31.9958 C   0  0  0  0  0  0  0  0  0  0  0  0
    9.6887   40.1087   29.5506 C   0  0  0  0  0  0  0  0  0  0  0  0
   10.5859   39.2500   31.6420 C   0  0  0  0  0  0  0  0  0  0  0  0
    9.9394   39.0265   30.4116 C   0  0  0  0  0  0  0  0  0  0  0  0
    9.0118   39.8900   28.2428 C   0  0  0  0  0  0  0  0  0  0  0  0
   10.8238   38.1314   32.6261 C   0  0  0  0  0  0  0  0  0  0  0  0
   10.6859   36.7376   32.0166 C   0  0  0  0  0  0  0  0  0  0  0  0
    9.4408   36.6545   31.1407 C   0  0  0  0  0  0  0  0  0  0  0  0
    9.0130   36.3581   26.1777 C   0  0  0  0  0  0  0  0  0  0  0  0
    7.7065   37.6153   24.4748 C   0  0  0  0  0  0  0  0  0  0  0  0
    8.2714   37.6942   29.1628 C   0  0  0  0  0  0  0  0  0  0  0  0
    7.8089   35.4524   26.4365 C   0  0  0  0  0  0  0  0  0  0  0  0
    6.4966   36.7161   24.7356 C   0  0  0  0  0  0  0  0  0  0  0  0
    6.4578   37.4277   27.1283 C   0  0  0  0  0  0  0  0  0  0  0  0
    9.5655   37.6322   29.9677 C   0  0  1  0  0  0  0  0  0  0  0  0
    8.5500   37.7650   25.7537 C   0  0  0  0  0  0  0  0  0  0  0  0
    7.6417   38.3644   26.8505 C   0  0  2  0  0  0  0  0  0  0  0  0
    8.3844   38.6534   28.0673 N   0  0  0  0  0  0  0  0  0  0  0  0
    6.5485   36.2497   26.1763 N   0  3  0  0  0  0  0  0  0  0  0  0
    9.0381   40.7860   27.4022 O   0  0  0  0  0  0  0  0  0  0  0  0
   11.0071   42.6275   31.4179 H   0  0  0  0  0  0  0  0  0  0  0  0
    9.8925   42.2522   29.2603 H   0  0  0  0  0  0  0  0  0  0  0  0
   11.4415   40.7464   32.9506 H   0  0  0  0  0  0  0  0  0  0  0  0
   11.8245   38.2266   33.0642 H   0  0  0  0  0  0  0  0  0  0  0  0
   10.0955   38.2392   33.4400 H   0  0  0  0  0  0  0  0  0  0  0  0
   11.5736   36.5058   31.4144 H   0  0  0  0  0  0  0  0  0  0  0  0
   10.6379   35.9895   32.8158 H   0  0  0  0  0  0  0  0  0  0  0  0
    9.3209   35.6327   30.7619 H   0  0  0  0  0  0  0  0  0  0  0  0
    8.5522   36.8811   31.7441 H   0  0  0  0  0  0  0  0  0  0  0  0
    9.6387   36.4087   27.0764 H   0  0  0  0  0  0  0  0  0  0  0  0
    9.6422   35.9166   25.3950 H   0  0  0  0  0  0  0  0  0  0  0  0
    8.3136   37.1915   23.6658 H   0  0  0  0  0  0  0  0  0  0  0  0
    7.3680   38.5974   24.1233 H   0  0  0  0  0  0  0  0  0  0  0  0
    8.0420   36.7056   28.7485 H   0  0  0  0  0  0  0  0  0  0  0  0
    7.4241   38.0110   29.7836 H   0  0  0  0  0  0  0  0  0  0  0  0
    7.7930   34.5845   25.7691 H   0  0  0  0  0  0  0  0  0  0  0  0
    7.7692   35.1030   27.4734 H   0  0  0  0  0  0  0  0  0  0  0  0
    5.5491   37.2469   24.5960 H   0  0  0  0  0  0  0  0  0  0  0  0
    6.5004   35.8240   24.1008 H   0  0  0  0  0  0  0  0  0  0  0  0
    6.4447   37.0206   28.1453 H   0  0  0  0  0  0  0  0  0  0  0  0
    5.4981   37.9195   26.9354 H   0  0  0  0  0  0  0  0  0  0  0  0
   10.3755   37.2832   29.3109 H   0  0  0  0  0  0  0  0  0  0  0  0
    9.4176   38.4074   25.5658 H   0  0  0  0  0  0  0  0  0  0  0  0
    7.2569   39.3349   26.5144 H   0  0  0  0  0  0  0  0  0  0  0  0
    5.7394   35.6372   26.3456 H   0  0  0  0  0  0  0  0  0  0  0  0
  1  2  1  0  0  0  0
  1  3  2  0  0  0  0
  2  4  2  0  0  0  0
  3  5  1  0  0  0  0
  4  6  1  0  0  0  0
  4  7  1  0  0  0  0
  5  6  2  0  0  0  0
  5  8  1  0  0  0  0
  6 17  1  0  0  0  0
  7 20  1  0  0  0  0
  7 22  2  0  0  0  0
  8  9  1  0  0  0  0
  9 10  1  0  0  0  0
 10 17  1  0  0  0  0
 11 14  1  0  0  0  0
 11 18  1  0  0  0  0
 12 15  1  0  0  0  0
 12 18  1  0  0  0  0
 13 17  1  0  0  0  0
 13 20  1  0  0  0  0
 14 21  1  0  0  0  0
 15 21  1  0  0  0  0
 16 19  1  0  0  0  0
 16 21  1  0  0  0  0
 18 19  1  0  0  0  0
 19 20  1  0  0  0  0
  1 23  1  0  0  0  0
  2 24  1  0  0  0  0
  3 25  1  0  0  0  0
  8 26  1  0  0  0  0
  8 27  1  0  0  0  0
  9 28  1  0  0  0  0
  9 29  1  0  0  0  0
 10 30  1  0  0  0  0
 10 31  1  0  0  0  0
 11 32  1  0  0  0  0
 11 33  1  0  0  0  0
 12 34  1  0  0  0  0
 12 35  1  0  0  0  0
 13 36  1  0  0  0  0
 13 37  1  0  0  0  0
 14 38  1  0  0  0  0
 14 39  1  0  0  0  0
 15 40  1  0  0  0  0
 15 41  1  0  0  0  0
 16 42  1  0  0  0  0
 16 43  1  0  0  0  0
 17 44  1  0  0  0  0
 18 45  1  0  0  0  0
 19 46  1  0  0  0  0
 21 47  1  0  0  0  0
M  CHG  1  21   1
M  END
> <Chemgauss4>
-10.084058

$$$$
