@<TRIPOS>MOLECULE
*****
   30    32     0     0     0
SMALL
USER_CHARGES

@<TRIPOS>ATOM
      1 C1          8.5986   38.9648   29.6649 C.3       1 CB8-G10        -0.0860
      2 C2         11.0737   38.5652   29.7949 C.3       1 CB8-G10        -0.0946
      3 C3          9.5400   37.5533   31.5153 C.3       1 CB8-G10        -0.0946
      4 C4          9.7230   37.4979   27.9704 C.3       1 CB8-G10        -0.0979
      5 C5          8.1925   36.4905   29.6852 C.3       1 CB8-G10        -0.0979
      6 C6         10.6696   36.0828   29.8156 C.3       1 CB8-G10        -0.1330
      7 C7          9.8814   38.7575   28.8386 C.3       1 CB8-G10        -0.0548
      8 C8          8.3417   37.7427   30.5658 C.3       1 CB8-G10        -0.0548
      9 C9         10.8199   37.3387   30.6885 C.3       1 CB8-G10         0.1442
     10 C10         9.4744   36.2677   28.8614 C.3       1 CB8-G10         0.1707
     11 N1         11.9710   37.1587   31.6087 N.4       1 CB8-G10        -0.8470
     12 O1          9.3289   35.1202   28.0373 O.3       1 CB8-G10        -0.5678
     13 H1          8.6915   39.8689   30.2790 H         1 CB8-G10         0.0702
     14 H2          7.7442   39.1207   28.9947 H         1 CB8-G10         0.0702
     15 H3         11.9962   38.4357   29.2145 H         1 CB8-G10         0.0656
     16 H4         11.2073   39.4673   30.4059 H         1 CB8-G10         0.0656
     17 H5          9.6419   38.4338   32.1628 H         1 CB8-G10         0.0656
     18 H6          9.3577   36.6945   32.1741 H         1 CB8-G10         0.0656
     19 H7          8.8945   37.6236   27.2613 H         1 CB8-G10         0.0767
     20 H8         10.6183   37.3425   27.3545 H         1 CB8-G10         0.0767
     21 H9          7.9845   35.6095   30.3060 H         1 CB8-G10         0.0767
     22 H10         7.3280   36.5924   29.0164 H         1 CB8-G10         0.0767
     23 H11        11.5834   35.8909   29.2370 H         1 CB8-G10         0.0711
     24 H12        10.5198   35.1880   30.4349 H         1 CB8-G10         0.0711
     25 H13        10.0559   39.6298   28.1993 H         1 CB8-G10         0.0908
     26 H14         7.4273   37.8977   31.1490 H         1 CB8-G10         0.0908
     27 H15        11.7022   36.6017   32.4263 H         1 CB8-G10         0.4549
     28 H16        12.3172   38.0644   31.9421 H         1 CB8-G10         0.4549
     29 H17        12.7442   36.6776   31.1376 H         1 CB8-G10         0.4549
     30 H18         9.1741   34.3663   28.6297 H         1 CB8-G10         0.4156
@<TRIPOS>BOND
     1    1    7 1
     2    1    8 1
     3    2    7 1
     4    2    9 1
     5    3    8 1
     6    3    9 1
     7    4    7 1
     8    4   10 1
     9    5    8 1
    10    5   10 1
    11    6    9 1
    12    6   10 1
    13    9   11 1
    14   10   12 1
    15    1   13 1
    16    1   14 1
    17    2   15 1
    18    2   16 1
    19    3   17 1
    20    3   18 1
    21    4   19 1
    22    4   20 1
    23    5   21 1
    24    5   22 1
    25    6   23 1
    26    6   24 1
    27    7   25 1
    28    8   26 1
    29   11   27 1
    30   11   28 1
    31   11   29 1
    32   12   30 1
