@<TRIPOS>MOLECULE
*****
   47    51     0     0     0
SMALL
USER_CHARGES

@<TRIPOS>ATOM
      1 C1         10.7109   41.6219   31.1336 C.ar      1 CB8-G2        -0.1335
      2 C2         10.0786   41.4027   29.9118 C.ar      1 CB8-G2        -0.0634
      3 C3         10.9578   40.5548   31.9958 C.ar      1 CB8-G2        -0.0862
      4 C4          9.6887   40.1087   29.5506 C.ar      1 CB8-G2        -0.1579
      5 C5         10.5859   39.2500   31.6420 C.ar      1 CB8-G2        -0.0694
      6 C6          9.9394   39.0265   30.4116 C.ar      1 CB8-G2        -0.0411
      7 C7          9.0118   39.8900   28.2428 C.2       1 CB8-G2         0.7351
      8 C8         10.8238   38.1314   32.6261 C.3       1 CB8-G2        -0.0406
      9 C9         10.6859   36.7376   32.0166 C.3       1 CB8-G2        -0.0775
     10 C10         9.4408   36.6545   31.1407 C.3       1 CB8-G2        -0.0730
     11 C11         9.0130   36.3581   26.1777 C.3       1 CB8-G2        -0.0979
     12 C12         7.7065   37.6153   24.4748 C.3       1 CB8-G2        -0.0979
     13 C13         8.2714   37.6942   29.1628 C.3       1 CB8-G2         0.0987
     14 C14         7.8089   35.4524   26.4365 C.3       1 CB8-G2         0.1135
     15 C15         6.4966   36.7161   24.7356 C.3       1 CB8-G2         0.1135
     16 C16         6.4578   37.4277   27.1283 C.3       1 CB8-G2         0.0983
     17 C17         9.5655   37.6322   29.9677 C.3       1 CB8-G2        -0.0357
     18 C18         8.5500   37.7650   25.7537 C.3       1 CB8-G2        -0.1010
     19 C19         7.6417   38.3644   26.8505 C.3       1 CB8-G2         0.1205
     20 N1          8.3844   38.6534   28.0673 N.am      1 CB8-G2        -0.4890
     21 N2          6.5485   36.2497   26.1763 N.4       1 CB8-G2        -0.6830
     22 O1          9.0381   40.7860   27.4022 O.2       1 CB8-G2        -0.6607
     23 H1         11.0071   42.6275   31.4179 H         1 CB8-G2         0.1511
     24 H2          9.8925   42.2522   29.2603 H         1 CB8-G2         0.1621
     25 H3         11.4415   40.7464   32.9506 H         1 CB8-G2         0.1497
     26 H4         11.8245   38.2266   33.0642 H         1 CB8-G2         0.0646
     27 H5         10.0955   38.2392   33.4400 H         1 CB8-G2         0.0646
     28 H6         11.5736   36.5058   31.4144 H         1 CB8-G2         0.0556
     29 H7         10.6379   35.9895   32.8158 H         1 CB8-G2         0.0556
     30 H8          9.3209   35.6327   30.7619 H         1 CB8-G2         0.0499
     31 H9          8.5522   36.8811   31.7441 H         1 CB8-G2         0.0499
     32 H10         9.6387   36.4087   27.0764 H         1 CB8-G2         0.0895
     33 H11         9.6422   35.9166   25.3950 H         1 CB8-G2         0.0895
     34 H12         8.3136   37.1915   23.6658 H         1 CB8-G2         0.0895
     35 H13         7.3680   38.5974   24.1233 H         1 CB8-G2         0.0895
     36 H14         8.0420   36.7056   28.7485 H         1 CB8-G2         0.0444
     37 H15         7.4241   38.0110   29.7836 H         1 CB8-G2         0.0444
     38 H16         7.7930   34.5845   25.7691 H         1 CB8-G2         0.1029
     39 H17         7.7692   35.1030   27.4734 H         1 CB8-G2         0.1029
     40 H18         5.5491   37.2469   24.5960 H         1 CB8-G2         0.1029
     41 H19         6.5004   35.8240   24.1008 H         1 CB8-G2         0.1029
     42 H20         6.4447   37.0206   28.1453 H         1 CB8-G2         0.1115
     43 H21         5.4981   37.9195   26.9354 H         1 CB8-G2         0.1115
     44 H22        10.3755   37.2832   29.3109 H         1 CB8-G2         0.0742
     45 H23         9.4176   38.4074   25.5658 H         1 CB8-G2         0.1166
     46 H24         7.2569   39.3349   26.5144 H         1 CB8-G2         0.0979
     47 H25         5.7394   35.6372   26.3456 H         1 CB8-G2         0.4553
@<TRIPOS>BOND
     1    1    2 ar
     2    1    3 ar
     3    2    4 ar
     4    3    5 ar
     5    4    6 ar
     6    4    7 1
     7    5    6 ar
     8    5    8 1
     9    6   17 1
    10    7   20 am
    11    7   22 2
    12    8    9 1
    13    9   10 1
    14   10   17 1
    15   11   14 1
    16   11   18 1
    17   12   15 1
    18   12   18 1
    19   13   17 1
    20   13   20 1
    21   14   21 1
    22   15   21 1
    23   16   19 1
    24   16   21 1
    25   18   19 1
    26   19   20 1
    27    1   23 1
    28    2   24 1
    29    3   25 1
    30    8   26 1
    31    8   27 1
    32    9   28 1
    33    9   29 1
    34   10   30 1
    35   10   31 1
    36   11   32 1
    37   11   33 1
    38   12   34 1
    39   12   35 1
    40   13   36 1
    41   13   37 1
    42   14   38 1
    43   14   39 1
    44   15   40 1
    45   15   41 1
    46   16   42 1
    47   16   43 1
    48   17   44 1
    49   18   45 1
    50   19   46 1
    51   21   47 1
