

ResForm 1
 38 40  0  0  0  0  0  0  0  0999 V2000
    0.5580    0.5560    1.3060 C   0  0  0  0  0  0  0  0  0  0  0
   -0.5140   -0.6090   -1.1470 C   0  0  0  0  0  0  0  0  0  0  0
   -0.1830    1.2890    0.4000 C   0  0  0  0  0  0  0  0  0  0  0
    0.2260   -1.3440   -0.2410 C   0  0  0  0  0  0  0  0  0  0  0
    0.7550   -0.7690    0.9680 C   0  0  0  0  0  0  0  0  0  0  0
   -0.7100    0.7160   -0.8120 C   0  0  0  0  0  0  0  0  0  0  0
    1.2250   -2.9410    0.9380 C   0  0  0  0  0  0  0  0  0  0  0
   -1.2400    2.8770   -0.7470 C   0  0  0  0  0  0  0  0  0  0  0
   -4.3990    1.9050   -1.9170 C   0  0  0  0  0  0  0  0  0  0  0
   -0.0610   -3.6710   -1.0820 C   0  0  0  0  0  0  0  0  0  0  0
    0.0080    3.6100    1.3010 C   0  0  0  0  0  0  0  0  0  0  0
    1.7420   -1.7070    3.0530 C   0  0  0  0  0  0  0  0  0  0  0
   -3.4190    0.9990   -2.6500 C   0  0  0  0  0  0  0  0  0  0  0
   -2.0210    1.6070   -2.7770 C   0  0  0  0  0  0  0  0  0  0  0
    0.6000   -2.6990   -0.2490 N   0  3  0  0  0  0  0  0  0  0  0
   -0.5800    2.6360    0.4210 N   0  3  0  0  0  0  0  0  0  0  0
    1.4300   -1.7970    1.6500 N   0  0  0  0  0  0  0  0  0  0  0
   -1.3750    1.7450   -1.4920 N   0  0  0  0  0  0  0  0  0  0  0
    0.9370    0.9680    2.1720 H   0  0  0  0  0  0  0  0  0  0  0
   -0.8940   -1.0220   -2.0140 H   0  0  0  0  0  0  0  0  0  0  0
    1.5090   -3.8790    1.2600 H   0  0  0  0  0  0  0  0  0  0  0
   -1.5940    3.8030   -1.0310 H   0  0  0  0  0  0  0  0  0  0  0
   -5.3540    1.4260   -1.8610 H   0  0  0  0  0  0  0  0  0  0  0
   -4.4850    2.8440   -2.4230 H   0  0  0  0  0  0  0  0  0  0  0
   -4.0370    2.0860   -0.9270 H   0  0  0  0  0  0  0  0  0  0  0
   -0.4580   -3.1860   -1.9490 H   0  0  0  0  0  0  0  0  0  0  0
   -0.8440   -4.1540   -0.5360 H   0  0  0  0  0  0  0  0  0  0  0
    0.6470   -4.4120   -1.3860 H   0  0  0  0  0  0  0  0  0  0  0
    0.4550    3.1130    2.1370 H   0  0  0  0  0  0  0  0  0  0  0
   -0.7350    4.3030    1.6370 H   0  0  0  0  0  0  0  0  0  0  0
    0.7630    4.1530    0.7710 H   0  0  0  0  0  0  0  0  0  0  0
    1.8470   -0.6790    3.3310 H   0  0  0  0  0  0  0  0  0  0  0
    2.6430   -2.2430    3.2670 H   0  0  0  0  0  0  0  0  0  0  0
    0.9460   -2.1450    3.6190 H   0  0  0  0  0  0  0  0  0  0  0
   -3.8010    0.7690   -3.6220 H   0  0  0  0  0  0  0  0  0  0  0
   -3.3200    0.1090   -2.0640 H   0  0  0  0  0  0  0  0  0  0  0
   -2.0820    2.5610   -3.2580 H   0  0  0  0  0  0  0  0  0  0  0
   -1.4290    0.9390   -3.3680 H   0  0  0  0  0  0  0  0  0  0  0
  1  3  2  0  0  0  0
  1  5  1  0  0  0  0
  1 19  1  0  0  0  0
  2  4  1  0  0  0  0
  2  6  2  0  0  0  0
  2 20  1  0  0  0  0
  3  6  1  0  0  0  0
  3 16  1  0  0  0  0
  4  5  2  0  0  0  0
  4 15  1  0  0  0  0
  5 17  1  0  0  0  0
  6 18  1  0  0  0  0
  7 15  2  0  0  0  0
  7 17  1  0  0  0  0
  7 21  1  0  0  0  0
  8 16  2  0  0  0  0
  8 18  1  0  0  0  0
  8 22  1  0  0  0  0
  9 13  1  0  0  0  0
  9 23  1  0  0  0  0
  9 24  1  0  0  0  0
  9 25  1  0  0  0  0
 10 15  1  0  0  0  0
 10 26  1  0  0  0  0
 10 27  1  0  0  0  0
 10 28  1  0  0  0  0
 11 16  1  0  0  0  0
 11 29  1  0  0  0  0
 11 30  1  0  0  0  0
 11 31  1  0  0  0  0
 12 17  1  0  0  0  0
 12 32  1  0  0  0  0
 12 33  1  0  0  0  0
 12 34  1  0  0  0  0
 13 14  1  0  0  0  0
 13 35  1  0  0  0  0
 13 36  1  0  0  0  0
 14 18  1  0  0  0  0
 14 37  1  0  0  0  0
 14 38  1  0  0  0  0
M  END
